<routes>
        <vType id="typeWE" accel="0.8" decel="4.5" sigma="0.5" length="5" minGap="2.5" maxSpeed="16.67" guiShape="passenger"/>
        <vType id="typeNS" accel="0.8" decel="4.5" sigma="0.5" length="7" minGap="3" maxSpeed="25" guiShape="bus"/>

        <route id="right" edges="51o 1i 2o 52i" />
        <route id="right_down" edges="51o 1i 3o 53i" />
        <route id="left" edges="52o 2i 1o 51i" />
        <route id="left_up" edges="52o 2i 4o 54i" />
        
        <route id="up" edges="53o 3i 4o 54i" />
        <route id="up_right" edges="53o 3i 2o 52i" />
        <route id="down_left" edges="54o 4i 1o 51i" />
        <route id="down" edges="54o 4i 3o 53i" />
    <vehicle id="left_0" type="typeWE" route="left" depart="0" />
    <vehicle id="down_1" type="typeNS" route="left_up" depart="0" />
    <vehicle id="left_2" type="typeWE" route="left" depart="1" />
    <vehicle id="left_3" type="typeNS" route="down_left" depart="1" color="1,0,0" />
    <vehicle id="down_4" type="typeNS" route="up_right" depart="1" color="1,0,0"/>
    <vehicle id="right_5" type="typeNS" route="up" depart="2" color="1,0,0"/>
    <vehicle id="down_6" type="typeNS" route="left_up" depart="2" />
    <vehicle id="down_7" type="typeNS" route="down" depart="3" color="1,0,0"/>
    <vehicle id="right_8" type="typeNS" route="up" depart="3" color="1,0,0"/>
    <vehicle id="left_9" type="typeWE" route="left" depart="5" />
    <vehicle id="left_10" type="typeNS" route="down_left" depart="5" color="1,0,0" />
    <vehicle id="left_11" type="typeWE" route="right_down" depart="5" />
    <vehicle id="right_12" type="typeWE" route="right" depart="7" />
    <vehicle id="down_13" type="typeNS" route="down" depart="7" color="1,0,0"/>
    <vehicle id="right_14" type="typeNS" route="up" depart="8" color="1,0,0"/>
    <vehicle id="right_15" type="typeWE" route="right" depart="11" />
    <vehicle id="left_16" type="typeWE" route="left" depart="11" />
    <vehicle id="down_17" type="typeNS" route="down" depart="11" color="1,0,0"/>
    <vehicle id="left_18" type="typeWE" route="right_down" depart="11" />
    <vehicle id="left_19" type="typeNS" route="down_left" depart="12" color="1,0,0" />
    <vehicle id="down_20" type="typeNS" route="down" depart="13" color="1,0,0"/>
    <vehicle id="left_21" type="typeWE" route="left" depart="14" />
    <vehicle id="down_22" type="typeNS" route="left_up" depart="14" />
    <vehicle id="left_23" type="typeNS" route="down_left" depart="15" color="1,0,0" />
    <vehicle id="left_24" type="typeWE" route="right_down" depart="15" />
    <vehicle id="right_25" type="typeNS" route="up" depart="16" color="1,0,0"/>
    <vehicle id="left_26" type="typeWE" route="right_down" depart="16" />
    <vehicle id="right_27" type="typeWE" route="right" depart="17" />
    <vehicle id="right_28" type="typeNS" route="up" depart="17" color="1,0,0"/>
    <vehicle id="down_29" type="typeNS" route="down" depart="19" color="1,0,0"/>
    <vehicle id="right_30" type="typeWE" route="right" depart="20" />
    <vehicle id="down_31" type="typeNS" route="up_right" depart="20" color="1,0,0"/>
    <vehicle id="left_32" type="typeWE" route="left" depart="21" />
    <vehicle id="down_33" type="typeNS" route="left_up" depart="21" />
    <vehicle id="right_34" type="typeWE" route="right" depart="22" />
    <vehicle id="down_35" type="typeNS" route="left_up" depart="22" />
    <vehicle id="left_36" type="typeNS" route="down_left" depart="23" color="1,0,0" />
    <vehicle id="down_37" type="typeNS" route="up_right" depart="24" color="1,0,0"/>
    <vehicle id="right_38" type="typeNS" route="up" depart="25" color="1,0,0"/>
    <vehicle id="down_39" type="typeNS" route="left_up" depart="25" />
    <vehicle id="down_40" type="typeNS" route="down" depart="27" color="1,0,0"/>
    <vehicle id="right_41" type="typeWE" route="right" depart="28" />
    <vehicle id="left_42" type="typeNS" route="down_left" depart="28" color="1,0,0" />
    <vehicle id="left_43" type="typeWE" route="right_down" depart="28" />
    <vehicle id="down_44" type="typeNS" route="left_up" depart="28" />
    <vehicle id="right_45" type="typeNS" route="up" depart="29" color="1,0,0"/>
    <vehicle id="left_46" type="typeNS" route="down_left" depart="31" color="1,0,0" />
    <vehicle id="right_47" type="typeWE" route="right" depart="32" />
    <vehicle id="down_48" type="typeNS" route="left_up" depart="32" />
    <vehicle id="down_49" type="typeNS" route="up_right" depart="33" color="1,0,0"/>
    <vehicle id="down_50" type="typeNS" route="down" depart="34" color="1,0,0"/>
    <vehicle id="right_51" type="typeNS" route="up" depart="34" color="1,0,0"/>
    <vehicle id="left_52" type="typeNS" route="down_left" depart="34" color="1,0,0" />
    <vehicle id="down_53" type="typeNS" route="left_up" depart="35" />
    <vehicle id="down_54" type="typeNS" route="down" depart="36" color="1,0,0"/>
    <vehicle id="left_55" type="typeWE" route="left" depart="37" />
    <vehicle id="down_56" type="typeNS" route="down" depart="37" color="1,0,0"/>
    <vehicle id="right_57" type="typeWE" route="right" depart="38" />
    <vehicle id="left_58" type="typeWE" route="left" depart="38" />
    <vehicle id="left_59" type="typeWE" route="left" depart="39" />
    <vehicle id="left_60" type="typeWE" route="right_down" depart="39" />
    <vehicle id="left_61" type="typeNS" route="down_left" depart="40" color="1,0,0" />
    <vehicle id="down_62" type="typeNS" route="up_right" depart="41" color="1,0,0"/>
    <vehicle id="left_63" type="typeWE" route="right_down" depart="42" />
    <vehicle id="down_64" type="typeNS" route="left_up" depart="42" />
    <vehicle id="left_65" type="typeWE" route="left" depart="44" />
    <vehicle id="right_66" type="typeNS" route="up" depart="44" color="1,0,0"/>
    <vehicle id="left_67" type="typeWE" route="right_down" depart="44" />
    <vehicle id="right_68" type="typeWE" route="right" depart="46" />
    <vehicle id="down_69" type="typeNS" route="left_up" depart="46" />
    <vehicle id="down_70" type="typeNS" route="down" depart="48" color="1,0,0"/>
    <vehicle id="down_71" type="typeNS" route="down" depart="49" color="1,0,0"/>
    <vehicle id="down_72" type="typeNS" route="up_right" depart="50" color="1,0,0"/>
    <vehicle id="left_73" type="typeWE" route="right_down" depart="50" />
    <vehicle id="left_74" type="typeWE" route="right_down" depart="51" />
    <vehicle id="down_75" type="typeNS" route="left_up" depart="51" />
    <vehicle id="right_76" type="typeNS" route="up" depart="52" color="1,0,0"/>
    <vehicle id="left_77" type="typeWE" route="right_down" depart="52" />
    <vehicle id="right_78" type="typeNS" route="up" depart="53" color="1,0,0"/>
    <vehicle id="left_79" type="typeWE" route="right_down" depart="53" />
    <vehicle id="right_80" type="typeWE" route="right" depart="54" />
    <vehicle id="right_81" type="typeNS" route="up" depart="54" color="1,0,0"/>
    <vehicle id="left_82" type="typeNS" route="down_left" depart="57" color="1,0,0" />
    <vehicle id="left_83" type="typeWE" route="left" depart="58" />
    <vehicle id="down_84" type="typeNS" route="up_right" depart="58" color="1,0,0"/>
    <vehicle id="left_85" type="typeWE" route="left" depart="60" />
    <vehicle id="down_86" type="typeNS" route="up_right" depart="61" color="1,0,0"/>
    <vehicle id="left_87" type="typeWE" route="left" depart="62" />
    <vehicle id="right_88" type="typeNS" route="up" depart="62" color="1,0,0"/>
    <vehicle id="down_89" type="typeNS" route="up_right" depart="62" color="1,0,0"/>
    <vehicle id="right_90" type="typeWE" route="right" depart="63" />
    <vehicle id="down_91" type="typeNS" route="down" depart="63" color="1,0,0"/>
    <vehicle id="left_92" type="typeNS" route="down_left" depart="63" color="1,0,0" />
    <vehicle id="down_93" type="typeNS" route="up_right" depart="64" color="1,0,0"/>
    <vehicle id="left_94" type="typeWE" route="right_down" depart="64" />
    <vehicle id="down_95" type="typeNS" route="left_up" depart="65" />
    <vehicle id="right_96" type="typeWE" route="right" depart="66" />
    <vehicle id="left_97" type="typeWE" route="left" depart="66" />
    <vehicle id="down_98" type="typeNS" route="down" depart="66" color="1,0,0"/>
    <vehicle id="right_99" type="typeWE" route="right" depart="67" />
    <vehicle id="right_100" type="typeNS" route="up" depart="67" color="1,0,0"/>
    <vehicle id="left_101" type="typeWE" route="right_down" depart="67" />
    <vehicle id="down_102" type="typeNS" route="left_up" depart="67" />
    <vehicle id="down_103" type="typeNS" route="up_right" depart="68" color="1,0,0"/>
    <vehicle id="right_104" type="typeWE" route="right" depart="69" />
    <vehicle id="left_105" type="typeNS" route="down_left" depart="69" color="1,0,0" />
    <vehicle id="left_106" type="typeWE" route="right_down" depart="70" />
    <vehicle id="down_107" type="typeNS" route="left_up" depart="72" />
    <vehicle id="down_108" type="typeNS" route="up_right" depart="73" color="1,0,0"/>
    <vehicle id="down_109" type="typeNS" route="left_up" depart="73" />
    <vehicle id="left_110" type="typeWE" route="right_down" depart="74" />
    <vehicle id="right_111" type="typeWE" route="right" depart="75" />
    <vehicle id="right_112" type="typeWE" route="right" depart="76" />
    <vehicle id="down_113" type="typeNS" route="up_right" depart="77" color="1,0,0"/>
    <vehicle id="left_114" type="typeWE" route="right_down" depart="77" />
    <vehicle id="down_115" type="typeNS" route="left_up" depart="77" />
    <vehicle id="down_116" type="typeNS" route="down" depart="78" color="1,0,0"/>
    <vehicle id="left_117" type="typeWE" route="left" depart="79" />
    <vehicle id="down_118" type="typeNS" route="down" depart="79" color="1,0,0"/>
    <vehicle id="left_119" type="typeNS" route="down_left" depart="79" color="1,0,0" />
    <vehicle id="down_120" type="typeNS" route="up_right" depart="79" color="1,0,0"/>
    <vehicle id="right_121" type="typeNS" route="up" depart="80" color="1,0,0"/>
    <vehicle id="down_122" type="typeNS" route="down" depart="81" color="1,0,0"/>
    <vehicle id="right_123" type="typeNS" route="up" depart="81" color="1,0,0"/>
    <vehicle id="right_124" type="typeWE" route="right" depart="82" />
    <vehicle id="down_125" type="typeNS" route="down" depart="82" color="1,0,0"/>
    <vehicle id="right_126" type="typeNS" route="up" depart="82" color="1,0,0"/>
    <vehicle id="down_127" type="typeNS" route="left_up" depart="82" />
    <vehicle id="left_128" type="typeWE" route="left" depart="85" />
    <vehicle id="down_129" type="typeNS" route="down" depart="85" color="1,0,0"/>
    <vehicle id="right_130" type="typeNS" route="up" depart="85" color="1,0,0"/>
    <vehicle id="left_131" type="typeNS" route="down_left" depart="85" color="1,0,0" />
    <vehicle id="down_132" type="typeNS" route="left_up" depart="87" />
    <vehicle id="right_133" type="typeWE" route="right" depart="88" />
    <vehicle id="down_134" type="typeNS" route="up_right" depart="88" color="1,0,0"/>
    <vehicle id="right_135" type="typeNS" route="up" depart="89" color="1,0,0"/>
    <vehicle id="left_136" type="typeNS" route="down_left" depart="89" color="1,0,0" />
    <vehicle id="right_137" type="typeWE" route="right" depart="90" />
    <vehicle id="right_138" type="typeWE" route="right" depart="91" />
    <vehicle id="down_139" type="typeNS" route="up_right" depart="91" color="1,0,0"/>
    <vehicle id="left_140" type="typeWE" route="left" depart="92" />
    <vehicle id="left_141" type="typeWE" route="right_down" depart="94" />
    <vehicle id="right_142" type="typeWE" route="right" depart="96" />
    <vehicle id="left_143" type="typeNS" route="down_left" depart="96" color="1,0,0" />
    <vehicle id="down_144" type="typeNS" route="left_up" depart="96" />
    <vehicle id="right_145" type="typeNS" route="up" depart="97" color="1,0,0"/>
    <vehicle id="down_146" type="typeNS" route="up_right" depart="100" color="1,0,0"/>
    <vehicle id="left_147" type="typeNS" route="down_left" depart="101" color="1,0,0" />
    <vehicle id="left_148" type="typeWE" route="left" depart="102" />
    <vehicle id="down_149" type="typeNS" route="down" depart="103" color="1,0,0"/>
    <vehicle id="down_150" type="typeNS" route="up_right" depart="104" color="1,0,0"/>
    <vehicle id="right_151" type="typeNS" route="up" depart="106" color="1,0,0"/>
    <vehicle id="left_152" type="typeNS" route="down_left" depart="106" color="1,0,0" />
    <vehicle id="down_153" type="typeNS" route="down" depart="107" color="1,0,0"/>
    <vehicle id="right_154" type="typeWE" route="right" depart="108" />
    <vehicle id="left_155" type="typeNS" route="down_left" depart="108" color="1,0,0" />
    <vehicle id="right_156" type="typeWE" route="right" depart="109" />
    <vehicle id="left_157" type="typeWE" route="left" depart="109" />
    <vehicle id="left_158" type="typeWE" route="right_down" depart="109" />
    <vehicle id="down_159" type="typeNS" route="down" depart="110" color="1,0,0"/>
    <vehicle id="left_160" type="typeWE" route="right_down" depart="110" />
    <vehicle id="left_161" type="typeWE" route="right_down" depart="111" />
    <vehicle id="left_162" type="typeNS" route="down_left" depart="113" color="1,0,0" />
    <vehicle id="left_163" type="typeWE" route="left" depart="116" />
    <vehicle id="left_164" type="typeNS" route="down_left" depart="116" color="1,0,0" />
    <vehicle id="down_165" type="typeNS" route="up_right" depart="116" color="1,0,0"/>
    <vehicle id="left_166" type="typeWE" route="left" depart="118" />
    <vehicle id="right_167" type="typeNS" route="up" depart="118" color="1,0,0"/>
    <vehicle id="left_168" type="typeNS" route="down_left" depart="119" color="1,0,0" />
    <vehicle id="left_169" type="typeNS" route="down_left" depart="120" color="1,0,0" />
    <vehicle id="left_170" type="typeWE" route="right_down" depart="120" />
    <vehicle id="right_171" type="typeNS" route="up" depart="121" color="1,0,0"/>
    <vehicle id="right_172" type="typeWE" route="right" depart="122" />
    <vehicle id="left_173" type="typeNS" route="down_left" depart="122" color="1,0,0" />
    <vehicle id="left_174" type="typeWE" route="right_down" depart="122" />
    <vehicle id="down_175" type="typeNS" route="up_right" depart="123" color="1,0,0"/>
    <vehicle id="down_176" type="typeNS" route="left_up" depart="123" />
    <vehicle id="right_177" type="typeNS" route="up" depart="124" color="1,0,0"/>
    <vehicle id="right_178" type="typeWE" route="right" depart="125" />
    <vehicle id="left_179" type="typeWE" route="right_down" depart="125" />
    <vehicle id="down_180" type="typeNS" route="left_up" depart="125" />
    <vehicle id="down_181" type="typeNS" route="up_right" depart="126" color="1,0,0"/>
    <vehicle id="right_182" type="typeWE" route="right" depart="127" />
    <vehicle id="down_183" type="typeNS" route="down" depart="127" color="1,0,0"/>
    <vehicle id="right_184" type="typeWE" route="right" depart="128" />
    <vehicle id="down_185" type="typeNS" route="down" depart="128" color="1,0,0"/>
    <vehicle id="left_186" type="typeNS" route="down_left" depart="128" color="1,0,0" />
    <vehicle id="down_187" type="typeNS" route="up_right" depart="128" color="1,0,0"/>
    <vehicle id="down_188" type="typeNS" route="left_up" depart="128" />
    <vehicle id="left_189" type="typeWE" route="left" depart="129" />
    <vehicle id="down_190" type="typeNS" route="down" depart="129" color="1,0,0"/>
    <vehicle id="left_191" type="typeWE" route="right_down" depart="129" />
    <vehicle id="down_192" type="typeNS" route="left_up" depart="129" />
    <vehicle id="left_193" type="typeWE" route="right_down" depart="130" />
    <vehicle id="left_194" type="typeWE" route="left" depart="131" />
    <vehicle id="down_195" type="typeNS" route="left_up" depart="131" />
    <vehicle id="down_196" type="typeNS" route="up_right" depart="132" color="1,0,0"/>
    <vehicle id="left_197" type="typeWE" route="right_down" depart="132" />
    <vehicle id="right_198" type="typeWE" route="right" depart="133" />
    <vehicle id="left_199" type="typeWE" route="left" depart="134" />
    <vehicle id="down_200" type="typeNS" route="up_right" depart="135" color="1,0,0"/>
    <vehicle id="left_201" type="typeWE" route="left" depart="136" />
    <vehicle id="right_202" type="typeNS" route="up" depart="136" color="1,0,0"/>
    <vehicle id="down_203" type="typeNS" route="up_right" depart="136" color="1,0,0"/>
    <vehicle id="left_204" type="typeWE" route="right_down" depart="136" />
    <vehicle id="down_205" type="typeNS" route="up_right" depart="137" color="1,0,0"/>
    <vehicle id="down_206" type="typeNS" route="down" depart="139" color="1,0,0"/>
    <vehicle id="down_207" type="typeNS" route="up_right" depart="140" color="1,0,0"/>
    <vehicle id="left_208" type="typeWE" route="left" depart="141" />
    <vehicle id="down_209" type="typeNS" route="up_right" depart="141" color="1,0,0"/>
    <vehicle id="left_210" type="typeWE" route="left" depart="142" />
    <vehicle id="right_211" type="typeNS" route="up" depart="142" color="1,0,0"/>
    <vehicle id="left_212" type="typeNS" route="down_left" depart="143" color="1,0,0" />
    <vehicle id="down_213" type="typeNS" route="up_right" depart="143" color="1,0,0"/>
    <vehicle id="left_214" type="typeWE" route="right_down" depart="143" />
    <vehicle id="down_215" type="typeNS" route="left_up" depart="144" />
    <vehicle id="down_216" type="typeNS" route="up_right" depart="145" color="1,0,0"/>
    <vehicle id="right_217" type="typeWE" route="right" depart="146" />
    <vehicle id="right_218" type="typeNS" route="up" depart="146" color="1,0,0"/>
    <vehicle id="left_219" type="typeWE" route="right_down" depart="146" />
    <vehicle id="right_220" type="typeWE" route="right" depart="147" />
    <vehicle id="left_221" type="typeWE" route="right_down" depart="147" />
    <vehicle id="right_222" type="typeWE" route="right" depart="148" />
    <vehicle id="left_223" type="typeWE" route="left" depart="148" />
    <vehicle id="right_224" type="typeWE" route="right" depart="149" />
    <vehicle id="left_225" type="typeWE" route="left" depart="149" />
    <vehicle id="down_226" type="typeNS" route="left_up" depart="149" />
    <vehicle id="right_227" type="typeWE" route="right" depart="151" />
    <vehicle id="down_228" type="typeNS" route="down" depart="151" color="1,0,0"/>
    <vehicle id="down_229" type="typeNS" route="down" depart="152" color="1,0,0"/>
    <vehicle id="right_230" type="typeNS" route="up" depart="152" color="1,0,0"/>
    <vehicle id="down_231" type="typeNS" route="left_up" depart="152" />
    <vehicle id="right_232" type="typeNS" route="up" depart="154" color="1,0,0"/>
    <vehicle id="left_233" type="typeNS" route="down_left" depart="154" color="1,0,0" />
    <vehicle id="right_234" type="typeWE" route="right" depart="155" />
    <vehicle id="left_235" type="typeNS" route="down_left" depart="155" color="1,0,0" />
    <vehicle id="left_236" type="typeWE" route="right_down" depart="155" />
    <vehicle id="left_237" type="typeNS" route="down_left" depart="157" color="1,0,0" />
    <vehicle id="down_238" type="typeNS" route="up_right" depart="157" color="1,0,0"/>
    <vehicle id="left_239" type="typeWE" route="right_down" depart="157" />
    <vehicle id="right_240" type="typeNS" route="up" depart="158" color="1,0,0"/>
    <vehicle id="right_241" type="typeWE" route="right" depart="159" />
    <vehicle id="right_242" type="typeWE" route="right" depart="160" />
    <vehicle id="left_243" type="typeWE" route="left" depart="160" />
    <vehicle id="down_244" type="typeNS" route="down" depart="161" color="1,0,0"/>
    <vehicle id="left_245" type="typeWE" route="right_down" depart="163" />
    <vehicle id="right_246" type="typeNS" route="up" depart="164" color="1,0,0"/>
    <vehicle id="left_247" type="typeNS" route="down_left" depart="164" color="1,0,0" />
    <vehicle id="left_248" type="typeWE" route="right_down" depart="164" />
    <vehicle id="down_249" type="typeNS" route="down" depart="165" color="1,0,0"/>
    <vehicle id="down_250" type="typeNS" route="up_right" depart="165" color="1,0,0"/>
    <vehicle id="down_251" type="typeNS" route="left_up" depart="165" />
    <vehicle id="right_252" type="typeNS" route="up" depart="166" color="1,0,0"/>
    <vehicle id="right_253" type="typeNS" route="up" depart="169" color="1,0,0"/>
    <vehicle id="right_254" type="typeWE" route="right" depart="170" />
    <vehicle id="down_255" type="typeNS" route="left_up" depart="170" />
    <vehicle id="down_256" type="typeNS" route="up_right" depart="171" color="1,0,0"/>
    <vehicle id="left_257" type="typeWE" route="right_down" depart="171" />
    <vehicle id="right_258" type="typeNS" route="up" depart="172" color="1,0,0"/>
    <vehicle id="right_259" type="typeWE" route="right" depart="173" />
    <vehicle id="left_260" type="typeNS" route="down_left" depart="173" color="1,0,0" />
    <vehicle id="down_261" type="typeNS" route="left_up" depart="173" />
    <vehicle id="right_262" type="typeWE" route="right" depart="174" />
    <vehicle id="left_263" type="typeWE" route="right_down" depart="174" />
    <vehicle id="left_264" type="typeWE" route="left" depart="175" />
    <vehicle id="down_265" type="typeNS" route="up_right" depart="175" color="1,0,0"/>
    <vehicle id="right_266" type="typeWE" route="right" depart="176" />
    <vehicle id="right_267" type="typeNS" route="up" depart="176" color="1,0,0"/>
    <vehicle id="left_268" type="typeWE" route="left" depart="177" />
    <vehicle id="right_269" type="typeNS" route="up" depart="177" color="1,0,0"/>
    <vehicle id="down_270" type="typeNS" route="up_right" depart="178" color="1,0,0"/>
    <vehicle id="down_271" type="typeNS" route="up_right" depart="179" color="1,0,0"/>
    <vehicle id="right_272" type="typeWE" route="right" depart="180" />
    <vehicle id="left_273" type="typeWE" route="right_down" depart="180" />
    <vehicle id="down_274" type="typeNS" route="down" depart="181" color="1,0,0"/>
    <vehicle id="right_275" type="typeNS" route="up" depart="181" color="1,0,0"/>
    <vehicle id="left_276" type="typeNS" route="down_left" depart="181" color="1,0,0" />
    <vehicle id="right_277" type="typeNS" route="up" depart="182" color="1,0,0"/>
    <vehicle id="right_278" type="typeWE" route="right" depart="183" />
    <vehicle id="down_279" type="typeNS" route="up_right" depart="184" color="1,0,0"/>
    <vehicle id="down_280" type="typeNS" route="down" depart="185" color="1,0,0"/>
    <vehicle id="left_281" type="typeWE" route="left" depart="186" />
    <vehicle id="right_282" type="typeWE" route="right" depart="187" />
    <vehicle id="left_283" type="typeWE" route="right_down" depart="187" />
    <vehicle id="left_284" type="typeWE" route="left" depart="188" />
    <vehicle id="down_285" type="typeNS" route="down" depart="188" color="1,0,0"/>
    <vehicle id="left_286" type="typeWE" route="left" depart="190" />
    <vehicle id="down_287" type="typeNS" route="up_right" depart="191" color="1,0,0"/>
    <vehicle id="down_288" type="typeNS" route="down" depart="192" color="1,0,0"/>
    <vehicle id="down_289" type="typeNS" route="left_up" depart="192" />
    <vehicle id="right_290" type="typeWE" route="right" depart="194" />
    <vehicle id="down_291" type="typeNS" route="down" depart="194" color="1,0,0"/>
    <vehicle id="left_292" type="typeNS" route="down_left" depart="194" color="1,0,0" />
    <vehicle id="down_293" type="typeNS" route="down" depart="195" color="1,0,0"/>
    <vehicle id="left_294" type="typeWE" route="left" depart="196" />
    <vehicle id="down_295" type="typeNS" route="down" depart="197" color="1,0,0"/>
    <vehicle id="left_296" type="typeWE" route="right_down" depart="197" />
    <vehicle id="down_297" type="typeNS" route="left_up" depart="197" />
    <vehicle id="right_298" type="typeWE" route="right" depart="198" />
    <vehicle id="left_299" type="typeWE" route="left" depart="198" />
    <vehicle id="right_300" type="typeNS" route="up" depart="199" color="1,0,0"/>
    <vehicle id="down_301" type="typeNS" route="left_up" depart="199" />
    <vehicle id="left_302" type="typeWE" route="left" depart="200" />
    <vehicle id="right_303" type="typeWE" route="right" depart="201" />
    <vehicle id="left_304" type="typeWE" route="left" depart="201" />
    <vehicle id="right_305" type="typeWE" route="right" depart="203" />
    <vehicle id="left_306" type="typeWE" route="left" depart="203" />
    <vehicle id="right_307" type="typeNS" route="up" depart="204" color="1,0,0"/>
    <vehicle id="down_308" type="typeNS" route="down" depart="205" color="1,0,0"/>
    <vehicle id="right_309" type="typeWE" route="right" depart="206" />
    <vehicle id="left_310" type="typeWE" route="left" depart="207" />
    <vehicle id="down_311" type="typeNS" route="left_up" depart="207" />
    <vehicle id="down_312" type="typeNS" route="up_right" depart="209" color="1,0,0"/>
    <vehicle id="down_313" type="typeNS" route="left_up" depart="209" />
    <vehicle id="down_314" type="typeNS" route="up_right" depart="210" color="1,0,0"/>
    <vehicle id="left_315" type="typeNS" route="down_left" depart="211" color="1,0,0" />
    <vehicle id="down_316" type="typeNS" route="left_up" depart="211" />
    <vehicle id="right_317" type="typeWE" route="right" depart="212" />
    <vehicle id="right_318" type="typeWE" route="right" depart="213" />
    <vehicle id="left_319" type="typeWE" route="left" depart="215" />
    <vehicle id="left_320" type="typeWE" route="left" depart="216" />
    <vehicle id="down_321" type="typeNS" route="up_right" depart="216" color="1,0,0"/>
    <vehicle id="down_322" type="typeNS" route="left_up" depart="216" />
    <vehicle id="left_323" type="typeWE" route="left" depart="217" />
    <vehicle id="down_324" type="typeNS" route="down" depart="217" color="1,0,0"/>
    <vehicle id="left_325" type="typeNS" route="down_left" depart="217" color="1,0,0" />
    <vehicle id="right_326" type="typeNS" route="up" depart="218" color="1,0,0"/>
    <vehicle id="left_327" type="typeNS" route="down_left" depart="218" color="1,0,0" />
    <vehicle id="down_328" type="typeNS" route="down" depart="219" color="1,0,0"/>
    <vehicle id="right_329" type="typeNS" route="up" depart="220" color="1,0,0"/>
    <vehicle id="left_330" type="typeWE" route="left" depart="222" />
    <vehicle id="right_331" type="typeNS" route="up" depart="224" color="1,0,0"/>
    <vehicle id="down_332" type="typeNS" route="down" depart="225" color="1,0,0"/>
    <vehicle id="down_333" type="typeNS" route="up_right" depart="225" color="1,0,0"/>
    <vehicle id="down_334" type="typeNS" route="left_up" depart="225" />
    <vehicle id="left_335" type="typeWE" route="right_down" depart="226" />
    <vehicle id="right_336" type="typeNS" route="up" depart="227" color="1,0,0"/>
    <vehicle id="left_337" type="typeWE" route="left" depart="228" />
    <vehicle id="right_338" type="typeNS" route="up" depart="228" color="1,0,0"/>
    <vehicle id="left_339" type="typeNS" route="down_left" depart="229" color="1,0,0" />
    <vehicle id="left_340" type="typeWE" route="right_down" depart="229" />
    <vehicle id="down_341" type="typeNS" route="left_up" depart="230" />
    <vehicle id="right_342" type="typeWE" route="right" depart="231" />
    <vehicle id="left_343" type="typeWE" route="left" depart="231" />
    <vehicle id="left_344" type="typeNS" route="down_left" depart="231" color="1,0,0" />
    <vehicle id="left_345" type="typeWE" route="left" depart="232" />
    <vehicle id="left_346" type="typeWE" route="right_down" depart="232" />
    <vehicle id="right_347" type="typeWE" route="right" depart="233" />
    <vehicle id="left_348" type="typeWE" route="left" depart="233" />
    <vehicle id="down_349" type="typeNS" route="down" depart="234" color="1,0,0"/>
    <vehicle id="down_350" type="typeNS" route="up_right" depart="234" color="1,0,0"/>
    <vehicle id="left_351" type="typeWE" route="right_down" depart="234" />
    <vehicle id="down_352" type="typeNS" route="up_right" depart="235" color="1,0,0"/>
    <vehicle id="down_353" type="typeNS" route="down" depart="236" color="1,0,0"/>
    <vehicle id="right_354" type="typeNS" route="up" depart="236" color="1,0,0"/>
    <vehicle id="down_355" type="typeNS" route="left_up" depart="237" />
    <vehicle id="down_356" type="typeNS" route="down" depart="238" color="1,0,0"/>
    <vehicle id="left_357" type="typeNS" route="down_left" depart="238" color="1,0,0" />
    <vehicle id="right_358" type="typeWE" route="right" depart="239" />
    <vehicle id="right_359" type="typeNS" route="up" depart="239" color="1,0,0"/>
    <vehicle id="left_360" type="typeWE" route="right_down" depart="239" />
    <vehicle id="left_361" type="typeNS" route="down_left" depart="240" color="1,0,0" />
    <vehicle id="left_362" type="typeNS" route="down_left" depart="241" color="1,0,0" />
    <vehicle id="left_363" type="typeWE" route="right_down" depart="241" />
    <vehicle id="left_364" type="typeWE" route="left" depart="242" />
    <vehicle id="right_365" type="typeNS" route="up" depart="242" color="1,0,0"/>
    <vehicle id="left_366" type="typeNS" route="down_left" depart="244" color="1,0,0" />
    <vehicle id="left_367" type="typeWE" route="left" depart="245" />
    <vehicle id="down_368" type="typeNS" route="down" depart="245" color="1,0,0"/>
    <vehicle id="down_369" type="typeNS" route="up_right" depart="246" color="1,0,0"/>
    <vehicle id="down_370" type="typeNS" route="down" depart="247" color="1,0,0"/>
    <vehicle id="left_371" type="typeNS" route="down_left" depart="247" color="1,0,0" />
    <vehicle id="down_372" type="typeNS" route="up_right" depart="247" color="1,0,0"/>
    <vehicle id="right_373" type="typeWE" route="right" depart="248" />
    <vehicle id="left_374" type="typeWE" route="right_down" depart="248" />