<routes>
        <vType id="car" accel="3.5" decel="3.5" sigma="0.5" width="1.8" length="4.5" minGap="1" maxSpeed="25.2" guiShape="passenger"/>

        <route id="right" edges="51o 1i 2o 52i" />
        <route id="right_down" edges="51o 1i 3o 53i" />
        <route id="right_up" edges="51o 1i 4o 54i" />
        <route id="left" edges="52o 2i 1o 51i" />
        <route id="left_down" edges="52o 2i 3o 53i" />
        <route id="left_up" edges="52o 2i 4o 54i" />

        <route id="up" edges="53o 3i 4o 54i" />
,        <route id="up_right" edges="53o 3i 2o 52i" />
        <route id="up_left" edges="53o 3i 1o 51i" />
        <route id="down_right" edges="54o 4i 2o 52i" />
        <route id="down_left" edges="54o 4i 1o 51i" />
        <route id="down" edges="54o 4i 3o 53i" />
        
        <vehicle id="down_0" type="car" route="down" depart="65" />
        <vehicle id="right_up_1" type="car" route="right_up" depart="69" />
        <vehicle id="left_2" type="car" route="left" depart="137" />
        <vehicle id="up_right_3" type="car" route="up_right" depart="158" />
        <vehicle id="left_4" type="car" route="left" depart="286" />
</routes>
