<routes>
        <vType id="car" accel="3.5" decel="3.5" sigma="0.5" width="1.8" length="4.5" minGap="1" maxSpeed="25.2" guiShape="passenger"/>

        <route id="right" edges="51o 1i 2o 52i" />
        <route id="right_down" edges="51o 1i 3o 53i" />
        <route id="right_up" edges="51o 1i 4o 54i" />
        <route id="left" edges="52o 2i 1o 51i" />
        <route id="left_down" edges="52o 2i 3o 53i" />
        <route id="left_up" edges="52o 2i 4o 54i" />

        <route id="up" edges="53o 3i 4o 54i" />
,        <route id="up_right" edges="53o 3i 2o 52i" />
        <route id="up_left" edges="53o 3i 1o 51i" />
        <route id="down_right" edges="54o 4i 2o 52i" />
        <route id="down_left" edges="54o 4i 1o 51i" />
        <route id="down" edges="54o 4i 3o 53i" />
        
        <vehicle id="right_0" type="car"  route="right" depart="0" />
        <vehicle id="left_1" type="car"  route="left" depart="0" />
        <vehicle id="up_2" type="car"  route="up" depart="0" />
        <vehicle id="down_right_3" type="car"  route="down_right" depart="0" />
        <vehicle id="down_4" type="car"  route="down" depart="1" />
        <vehicle id="left_5" type="car"  route="left" depart="3" />
        <vehicle id="right_up_6" type="car"  route="right_up" depart="4" />
        <vehicle id="up_right_7" type="car"  route="up_right" depart="4" />
        <vehicle id="up_left_8" type="car"  route="up_left" depart="5" />
        <vehicle id="right_9" type="car"  route="right" depart="6" />
        <vehicle id="down_right_10" type="car"  route="down_right" depart="8" />
        <vehicle id="down_right_11" type="car"  route="down_right" depart="9" />
        <vehicle id="right_12" type="car"  route="right" depart="10" />
        <vehicle id="left_13" type="car"  route="left" depart="13" />
        <vehicle id="down_right_14" type="car"  route="down_right" depart="13" />
        <vehicle id="left_up_15" type="car"  route="left_up" depart="14" />
        <vehicle id="right_down_16" type="car"  route="right_down" depart="16" />
        <vehicle id="up_17" type="car"  route="up" depart="16" />
        <vehicle id="down_right_18" type="car"  route="down_right" depart="16" />
        <vehicle id="left_down_19" type="car"  route="left_down" depart="17" />
        <vehicle id="up_right_20" type="car"  route="up_right" depart="17" />
        <vehicle id="up_left_21" type="car"  route="up_left" depart="18" />
        <vehicle id="up_22" type="car"  route="up" depart="19" />
        <vehicle id="right_down_23" type="car"  route="right_down" depart="20" />
        <vehicle id="left_24" type="car"  route="left" depart="21" />
        <vehicle id="up_25" type="car"  route="up" depart="23" />
        <vehicle id="up_left_26" type="car"  route="up_left" depart="23" />
        <vehicle id="down_left_27" type="car"  route="down_left" depart="23" />
        <vehicle id="down_left_28" type="car"  route="down_left" depart="24" />
        <vehicle id="down_29" type="car"  route="down" depart="24" />
        <vehicle id="right_30" type="car"  route="right" depart="25" />
        <vehicle id="left_up_31" type="car"  route="left_up" depart="25" />
        <vehicle id="down_right_32" type="car"  route="down_right" depart="25" />
        <vehicle id="left_33" type="car"  route="left" depart="26" />
        <vehicle id="down_left_34" type="car"  route="down_left" depart="26" />
        <vehicle id="up_left_35" type="car"  route="up_left" depart="27" />
        <vehicle id="right_up_36" type="car"  route="right_up" depart="28" />
        <vehicle id="up_37" type="car"  route="up" depart="28" />
        <vehicle id="up_left_38" type="car"  route="up_left" depart="29" />
        <vehicle id="down_left_39" type="car"  route="down_left" depart="29" />
        <vehicle id="left_up_40" type="car"  route="left_up" depart="30" />
        <vehicle id="right_up_41" type="car"  route="right_up" depart="34" />
        <vehicle id="down_left_42" type="car"  route="down_left" depart="34" />
        <vehicle id="down_43" type="car"  route="down" depart="34" />
        <vehicle id="right_up_44" type="car"  route="right_up" depart="37" />
        <vehicle id="right_down_45" type="car"  route="right_down" depart="37" />
        <vehicle id="left_down_46" type="car"  route="left_down" depart="37" />
        <vehicle id="up_right_47" type="car"  route="up_right" depart="37" />
        <vehicle id="left_48" type="car"  route="left" depart="38" />
        <vehicle id="up_49" type="car"  route="up" depart="38" />
        <vehicle id="down_left_50" type="car"  route="down_left" depart="38" />
        <vehicle id="down_left_51" type="car"  route="down_left" depart="39" />
        <vehicle id="left_52" type="car"  route="left" depart="40" />
        <vehicle id="right_down_53" type="car"  route="right_down" depart="41" />
        <vehicle id="down_left_54" type="car"  route="down_left" depart="42" />
        <vehicle id="up_left_55" type="car"  route="up_left" depart="45" />
        <vehicle id="down_left_56" type="car"  route="down_left" depart="45" />
        <vehicle id="down_57" type="car"  route="down" depart="46" />
        <vehicle id="down_right_58" type="car"  route="down_right" depart="47" />
        <vehicle id="right_down_59" type="car"  route="right_down" depart="48" />
        <vehicle id="right_up_60" type="car"  route="right_up" depart="50" />
        <vehicle id="up_61" type="car"  route="up" depart="50" />
        <vehicle id="down_right_62" type="car"  route="down_right" depart="50" />
        <vehicle id="down_left_63" type="car"  route="down_left" depart="51" />
        <vehicle id="right_down_64" type="car"  route="right_down" depart="52" />
        <vehicle id="up_65" type="car"  route="up" depart="52" />
        <vehicle id="down_left_66" type="car"  route="down_left" depart="52" />
        <vehicle id="down_left_67" type="car"  route="down_left" depart="53" />
        <vehicle id="down_left_68" type="car"  route="down_left" depart="55" />
        <vehicle id="down_69" type="car"  route="down" depart="55" />
        <vehicle id="up_70" type="car"  route="up" depart="56" />
        <vehicle id="down_right_71" type="car"  route="down_right" depart="57" />
        <vehicle id="right_up_72" type="car"  route="right_up" depart="58" />
        <vehicle id="down_73" type="car"  route="down" depart="58" />
        <vehicle id="down_right_74" type="car"  route="down_right" depart="59" />
        <vehicle id="up_right_75" type="car"  route="up_right" depart="61" />
        <vehicle id="down_right_76" type="car"  route="down_right" depart="61" />
        <vehicle id="left_77" type="car"  route="left" depart="62" />
        <vehicle id="left_78" type="car"  route="left" depart="64" />
        <vehicle id="up_left_79" type="car"  route="up_left" depart="64" />
        <vehicle id="up_right_80" type="car"  route="up_right" depart="65" />
        <vehicle id="up_left_81" type="car"  route="up_left" depart="65" />
        <vehicle id="down_82" type="car"  route="down" depart="65" />
        <vehicle id="up_83" type="car"  route="up" depart="67" />
        <vehicle id="right_up_84" type="car"  route="right_up" depart="69" />
        <vehicle id="down_left_85" type="car"  route="down_left" depart="69" />
        <vehicle id="down_86" type="car"  route="down" depart="70" />
        <vehicle id="left_87" type="car"  route="left" depart="71" />
        <vehicle id="up_right_88" type="car"  route="up_right" depart="71" />
        <vehicle id="up_89" type="car"  route="up" depart="72" />
        <vehicle id="right_90" type="car"  route="right" depart="74" />
        <vehicle id="up_left_91" type="car"  route="up_left" depart="74" />
        <vehicle id="down_left_92" type="car"  route="down_left" depart="75" />
        <vehicle id="left_up_93" type="car"  route="left_up" depart="76" />
        <vehicle id="down_left_94" type="car"  route="down_left" depart="76" />
        <vehicle id="left_up_95" type="car"  route="left_up" depart="77" />
        <vehicle id="left_96" type="car"  route="left" depart="79" />
        <vehicle id="down_left_97" type="car"  route="down_left" depart="80" />
        <vehicle id="right_down_98" type="car"  route="right_down" depart="81" />
        <vehicle id="left_down_99" type="car"  route="left_down" depart="82" />
        <vehicle id="right_up_100" type="car"  route="right_up" depart="84" />
        <vehicle id="right_101" type="car"  route="right" depart="85" />
        <vehicle id="left_102" type="car"  route="left" depart="86" />
        <vehicle id="left_103" type="car"  route="left" depart="87" />
        <vehicle id="up_104" type="car"  route="up" depart="87" />
        <vehicle id="right_up_105" type="car"  route="right_up" depart="88" />
        <vehicle id="up_right_106" type="car"  route="up_right" depart="88" />
        <vehicle id="down_right_107" type="car"  route="down_right" depart="89" />
        <vehicle id="right_108" type="car"  route="right" depart="90" />
        <vehicle id="down_right_109" type="car"  route="down_right" depart="91" />
        <vehicle id="right_110" type="car"  route="right" depart="95" />
        <vehicle id="left_111" type="car"  route="left" depart="95" />
        <vehicle id="down_left_112" type="car"  route="down_left" depart="95" />
        <vehicle id="up_113" type="car"  route="up" depart="96" />
        <vehicle id="right_114" type="car"  route="right" depart="97" />
        <vehicle id="up_115" type="car"  route="up" depart="97" />
        <vehicle id="up_left_116" type="car"  route="up_left" depart="97" />
        <vehicle id="left_up_117" type="car"  route="left_up" depart="100" />
        <vehicle id="right_up_118" type="car"  route="right_up" depart="101" />
        <vehicle id="right_119" type="car"  route="right" depart="102" />
        <vehicle id="left_up_120" type="car"  route="left_up" depart="102" />
        <vehicle id="right_up_121" type="car"  route="right_up" depart="103" />
        <vehicle id="up_122" type="car"  route="up" depart="103" />
        <vehicle id="left_up_123" type="car"  route="left_up" depart="105" />
        <vehicle id="left_down_124" type="car"  route="left_down" depart="107" />
        <vehicle id="down_125" type="car"  route="down" depart="107" />
        <vehicle id="up_126" type="car"  route="up" depart="108" />
        <vehicle id="up_right_127" type="car"  route="up_right" depart="108" />
        <vehicle id="down_left_128" type="car"  route="down_left" depart="108" />
        <vehicle id="right_129" type="car"  route="right" depart="109" />
        <vehicle id="up_left_130" type="car"  route="up_left" depart="111" />
        <vehicle id="down_left_131" type="car"  route="down_left" depart="113" />
        <vehicle id="right_down_132" type="car"  route="right_down" depart="115" />
        <vehicle id="left_133" type="car"  route="left" depart="115" />
        <vehicle id="up_134" type="car"  route="up" depart="115" />
        <vehicle id="up_right_135" type="car"  route="up_right" depart="115" />
        <vehicle id="right_up_136" type="car"  route="right_up" depart="116" />
        <vehicle id="up_137" type="car"  route="up" depart="119" />
        <vehicle id="down_left_138" type="car"  route="down_left" depart="119" />
        <vehicle id="right_up_139" type="car"  route="right_up" depart="121" />
        <vehicle id="left_up_140" type="car"  route="left_up" depart="121" />
        <vehicle id="right_141" type="car"  route="right" depart="122" />
        <vehicle id="up_left_142" type="car"  route="up_left" depart="122" />
        <vehicle id="up_right_143" type="car"  route="up_right" depart="123" />
        <vehicle id="down_right_144" type="car"  route="down_right" depart="123" />
        <vehicle id="down_145" type="car"  route="down" depart="123" />
        <vehicle id="right_down_146" type="car"  route="right_down" depart="125" />
        <vehicle id="down_left_147" type="car"  route="down_left" depart="125" />
        <vehicle id="up_left_148" type="car"  route="up_left" depart="126" />
        <vehicle id="down_149" type="car"  route="down" depart="126" />
        <vehicle id="right_up_150" type="car"  route="right_up" depart="127" />
        <vehicle id="down_left_151" type="car"  route="down_left" depart="127" />
        <vehicle id="left_down_152" type="car"  route="left_down" depart="128" />
        <vehicle id="up_left_153" type="car"  route="up_left" depart="128" />
        <vehicle id="right_down_154" type="car"  route="right_down" depart="129" />
        <vehicle id="left_155" type="car"  route="left" depart="130" />
        <vehicle id="left_up_156" type="car"  route="left_up" depart="130" />
        <vehicle id="down_157" type="car"  route="down" depart="130" />
        <vehicle id="down_right_158" type="car"  route="down_right" depart="132" />
        <vehicle id="down_right_159" type="car"  route="down_right" depart="133" />
        <vehicle id="up_160" type="car"  route="up" depart="135" />
        <vehicle id="left_161" type="car"  route="left" depart="137" />
        <vehicle id="down_left_162" type="car"  route="down_left" depart="137" />
        <vehicle id="up_left_163" type="car"  route="up_left" depart="138" />
        <vehicle id="down_164" type="car"  route="down" depart="138" />
        <vehicle id="left_165" type="car"  route="left" depart="139" />
        <vehicle id="left_up_166" type="car"  route="left_up" depart="139" />
        <vehicle id="left_167" type="car"  route="left" depart="140" />
        <vehicle id="right_down_168" type="car"  route="right_down" depart="141" />
        <vehicle id="right_up_169" type="car"  route="right_up" depart="144" />
        <vehicle id="left_down_170" type="car"  route="left_down" depart="144" />
        <vehicle id="up_right_171" type="car"  route="up_right" depart="144" />
        <vehicle id="down_right_172" type="car"  route="down_right" depart="144" />
        <vehicle id="down_left_173" type="car"  route="down_left" depart="144" />
        <vehicle id="left_174" type="car"  route="left" depart="145" />
        <vehicle id="up_175" type="car"  route="up" depart="145" />
        <vehicle id="down_left_176" type="car"  route="down_left" depart="145" />
        <vehicle id="up_left_177" type="car"  route="up_left" depart="146" />
        <vehicle id="down_178" type="car"  route="down" depart="146" />
        <vehicle id="up_right_179" type="car"  route="up_right" depart="149" />
        <vehicle id="down_right_180" type="car"  route="down_right" depart="149" />
        <vehicle id="down_left_181" type="car"  route="down_left" depart="149" />
        <vehicle id="down_182" type="car"  route="down" depart="149" />
        <vehicle id="left_up_183" type="car"  route="left_up" depart="151" />
        <vehicle id="left_down_184" type="car"  route="left_down" depart="151" />
        <vehicle id="up_185" type="car"  route="up" depart="151" />
        <vehicle id="left_186" type="car"  route="left" depart="153" />
        <vehicle id="down_right_187" type="car"  route="down_right" depart="153" />
        <vehicle id="down_left_188" type="car"  route="down_left" depart="153" />
        <vehicle id="down_189" type="car"  route="down" depart="153" />
        <vehicle id="right_up_190" type="car"  route="right_up" depart="154" />
        <vehicle id="down_left_191" type="car"  route="down_left" depart="154" />
        <vehicle id="left_down_192" type="car"  route="left_down" depart="155" />
        <vehicle id="up_193" type="car"  route="up" depart="155" />
        <vehicle id="up_left_194" type="car"  route="up_left" depart="155" />
        <vehicle id="right_195" type="car"  route="right" depart="156" />
        <vehicle id="left_down_196" type="car"  route="left_down" depart="156" />
        <vehicle id="down_left_197" type="car"  route="down_left" depart="156" />
        <vehicle id="left_down_198" type="car"  route="left_down" depart="157" />
        <vehicle id="up_199" type="car"  route="up" depart="157" />
        <vehicle id="left_down_200" type="car"  route="left_down" depart="158" />
        <vehicle id="up_right_201" type="car"  route="up_right" depart="158" />
        <vehicle id="up_left_202" type="car"  route="up_left" depart="158" />
        <vehicle id="right_down_203" type="car"  route="right_down" depart="159" />
        <vehicle id="up_left_204" type="car"  route="up_left" depart="160" />
        <vehicle id="down_205" type="car"  route="down" depart="161" />
        <vehicle id="right_up_206" type="car"  route="right_up" depart="162" />
        <vehicle id="right_up_207" type="car"  route="right_up" depart="163" />
        <vehicle id="left_up_208" type="car"  route="left_up" depart="163" />
        <vehicle id="left_down_209" type="car"  route="left_down" depart="163" />
        <vehicle id="up_210" type="car"  route="up" depart="163" />
        <vehicle id="up_right_211" type="car"  route="up_right" depart="163" />
        <vehicle id="right_212" type="car"  route="right" depart="164" />
        <vehicle id="up_left_213" type="car"  route="up_left" depart="164" />
        <vehicle id="left_down_214" type="car"  route="left_down" depart="165" />
        <vehicle id="up_left_215" type="car"  route="up_left" depart="165" />
        <vehicle id="down_right_216" type="car"  route="down_right" depart="165" />
        <vehicle id="right_up_217" type="car"  route="right_up" depart="166" />
        <vehicle id="up_218" type="car"  route="up" depart="166" />
        <vehicle id="left_219" type="car"  route="left" depart="167" />
        <vehicle id="right_up_220" type="car"  route="right_up" depart="169" />
        <vehicle id="up_221" type="car"  route="up" depart="169" />
        <vehicle id="up_left_222" type="car"  route="up_left" depart="170" />
        <vehicle id="down_left_223" type="car"  route="down_left" depart="170" />
        <vehicle id="down_224" type="car"  route="down" depart="170" />
        <vehicle id="right_down_225" type="car"  route="right_down" depart="171" />
        <vehicle id="down_left_226" type="car"  route="down_left" depart="172" />
        <vehicle id="right_down_227" type="car"  route="right_down" depart="173" />
        <vehicle id="left_up_228" type="car"  route="left_up" depart="173" />
        <vehicle id="right_down_229" type="car"  route="right_down" depart="174" />
        <vehicle id="right_up_230" type="car"  route="right_up" depart="177" />
        <vehicle id="up_231" type="car"  route="up" depart="177" />
        <vehicle id="up_right_232" type="car"  route="up_right" depart="177" />
        <vehicle id="left_up_233" type="car"  route="left_up" depart="179" />
        <vehicle id="up_right_234" type="car"  route="up_right" depart="181" />
        <vehicle id="down_235" type="car"  route="down" depart="181" />
        <vehicle id="right_236" type="car"  route="right" depart="182" />
        <vehicle id="left_237" type="car"  route="left" depart="183" />
        <vehicle id="up_left_238" type="car"  route="up_left" depart="185" />
        <vehicle id="left_up_239" type="car"  route="left_up" depart="186" />
        <vehicle id="left_240" type="car"  route="left" depart="188" />
        <vehicle id="left_down_241" type="car"  route="left_down" depart="190" />
        <vehicle id="up_right_242" type="car"  route="up_right" depart="192" />
        <vehicle id="left_up_243" type="car"  route="left_up" depart="193" />
        <vehicle id="up_left_244" type="car"  route="up_left" depart="194" />
        <vehicle id="down_left_245" type="car"  route="down_left" depart="194" />
        <vehicle id="right_down_246" type="car"  route="right_down" depart="195" />
        <vehicle id="up_left_247" type="car"  route="up_left" depart="195" />
        <vehicle id="up_left_248" type="car"  route="up_left" depart="196" />
        <vehicle id="down_249" type="car"  route="down" depart="196" />
        <vehicle id="up_250" type="car"  route="up" depart="198" />
        <vehicle id="up_right_251" type="car"  route="up_right" depart="198" />
        <vehicle id="down_right_252" type="car"  route="down_right" depart="198" />
        <vehicle id="up_right_253" type="car"  route="up_right" depart="199" />
        <vehicle id="down_254" type="car"  route="down" depart="199" />
        <vehicle id="down_right_255" type="car"  route="down_right" depart="200" />
        <vehicle id="up_left_256" type="car"  route="up_left" depart="201" />
        <vehicle id="left_down_257" type="car"  route="left_down" depart="203" />
        <vehicle id="down_right_258" type="car"  route="down_right" depart="203" />
        <vehicle id="right_259" type="car"  route="right" depart="208" />
        <vehicle id="right_down_260" type="car"  route="right_down" depart="208" />
        <vehicle id="up_right_261" type="car"  route="up_right" depart="208" />
        <vehicle id="down_left_262" type="car"  route="down_left" depart="208" />
        <vehicle id="right_263" type="car"  route="right" depart="209" />
        <vehicle id="right_down_264" type="car"  route="right_down" depart="209" />
        <vehicle id="left_265" type="car"  route="left" depart="210" />
        <vehicle id="left_up_266" type="car"  route="left_up" depart="211" />
        <vehicle id="down_right_267" type="car"  route="down_right" depart="211" />
        <vehicle id="right_268" type="car"  route="right" depart="213" />
        <vehicle id="up_right_269" type="car"  route="up_right" depart="213" />
        <vehicle id="left_down_270" type="car"  route="left_down" depart="214" />
        <vehicle id="up_right_271" type="car"  route="up_right" depart="214" />
        <vehicle id="left_272" type="car"  route="left" depart="215" />
        <vehicle id="up_left_273" type="car"  route="up_left" depart="216" />
        <vehicle id="left_down_274" type="car"  route="left_down" depart="218" />
        <vehicle id="down_left_275" type="car"  route="down_left" depart="218" />
        <vehicle id="right_276" type="car"  route="right" depart="220" />
        <vehicle id="right_up_277" type="car"  route="right_up" depart="220" />
        <vehicle id="left_278" type="car"  route="left" depart="222" />
        <vehicle id="left_down_279" type="car"  route="left_down" depart="222" />
        <vehicle id="left_280" type="car"  route="left" depart="223" />
        <vehicle id="left_down_281" type="car"  route="left_down" depart="223" />
        <vehicle id="left_282" type="car"  route="left" depart="224" />
        <vehicle id="right_up_283" type="car"  route="right_up" depart="225" />
        <vehicle id="right_down_284" type="car"  route="right_down" depart="225" />
        <vehicle id="up_left_285" type="car"  route="up_left" depart="225" />
        <vehicle id="left_up_286" type="car"  route="left_up" depart="226" />
        <vehicle id="down_right_287" type="car"  route="down_right" depart="226" />
        <vehicle id="left_288" type="car"  route="left" depart="227" />
        <vehicle id="up_left_289" type="car"  route="up_left" depart="227" />
        <vehicle id="right_down_290" type="car"  route="right_down" depart="228" />
        <vehicle id="up_left_291" type="car"  route="up_left" depart="228" />
        <vehicle id="down_right_292" type="car"  route="down_right" depart="228" />
        <vehicle id="down_293" type="car"  route="down" depart="228" />
        <vehicle id="right_294" type="car"  route="right" depart="229" />
        <vehicle id="right_down_295" type="car"  route="right_down" depart="230" />
        <vehicle id="down_left_296" type="car"  route="down_left" depart="230" />
        <vehicle id="right_297" type="car"  route="right" depart="232" />
        <vehicle id="right_up_298" type="car"  route="right_up" depart="232" />
        <vehicle id="left_down_299" type="car"  route="left_down" depart="232" />
        <vehicle id="up_300" type="car"  route="up" depart="232" />
        <vehicle id="right_up_301" type="car"  route="right_up" depart="234" />
        <vehicle id="up_right_302" type="car"  route="up_right" depart="235" />
        <vehicle id="down_right_303" type="car"  route="down_right" depart="235" />
        <vehicle id="right_up_304" type="car"  route="right_up" depart="236" />
        <vehicle id="left_down_305" type="car"  route="left_down" depart="236" />
        <vehicle id="right_down_306" type="car"  route="right_down" depart="237" />
        <vehicle id="right_up_307" type="car"  route="right_up" depart="238" />
        <vehicle id="left_up_308" type="car"  route="left_up" depart="238" />
        <vehicle id="up_309" type="car"  route="up" depart="238" />
        <vehicle id="down_right_310" type="car"  route="down_right" depart="239" />
        <vehicle id="right_311" type="car"  route="right" depart="241" />
        <vehicle id="right_312" type="car"  route="right" depart="242" />
        <vehicle id="left_313" type="car"  route="left" depart="242" />
        <vehicle id="up_right_314" type="car"  route="up_right" depart="242" />
        <vehicle id="right_315" type="car"  route="right" depart="245" />
        <vehicle id="up_left_316" type="car"  route="up_left" depart="245" />
        <vehicle id="left_up_317" type="car"  route="left_up" depart="246" />
        <vehicle id="left_up_318" type="car"  route="left_up" depart="250" />
        <vehicle id="left_down_319" type="car"  route="left_down" depart="250" />
        <vehicle id="down_left_320" type="car"  route="down_left" depart="250" />
        <vehicle id="left_321" type="car"  route="left" depart="254" />
        <vehicle id="left_down_322" type="car"  route="left_down" depart="254" />
        <vehicle id="up_323" type="car"  route="up" depart="254" />
        <vehicle id="down_right_324" type="car"  route="down_right" depart="255" />
        <vehicle id="right_down_325" type="car"  route="right_down" depart="257" />
        <vehicle id="down_left_326" type="car"  route="down_left" depart="257" />
        <vehicle id="down_327" type="car"  route="down" depart="258" />
        <vehicle id="up_left_328" type="car"  route="up_left" depart="260" />
        <vehicle id="right_329" type="car"  route="right" depart="262" />
        <vehicle id="right_down_330" type="car"  route="right_down" depart="262" />
        <vehicle id="left_up_331" type="car"  route="left_up" depart="263" />
        <vehicle id="down_left_332" type="car"  route="down_left" depart="263" />
        <vehicle id="right_333" type="car"  route="right" depart="265" />
        <vehicle id="up_334" type="car"  route="up" depart="265" />
        <vehicle id="down_335" type="car"  route="down" depart="266" />
        <vehicle id="left_336" type="car"  route="left" depart="267" />
        <vehicle id="up_337" type="car"  route="up" depart="267" />
        <vehicle id="down_left_338" type="car"  route="down_left" depart="267" />
        <vehicle id="right_339" type="car"  route="right" depart="269" />
        <vehicle id="up_right_340" type="car"  route="up_right" depart="269" />
        <vehicle id="left_down_341" type="car"  route="left_down" depart="271" />
        <vehicle id="up_left_342" type="car"  route="up_left" depart="272" />
        <vehicle id="up_right_343" type="car"  route="up_right" depart="273" />
        <vehicle id="down_344" type="car"  route="down" depart="273" />
        <vehicle id="left_345" type="car"  route="left" depart="274" />
        <vehicle id="up_346" type="car"  route="up" depart="274" />
        <vehicle id="down_right_347" type="car"  route="down_right" depart="275" />
        <vehicle id="down_left_348" type="car"  route="down_left" depart="275" />
        <vehicle id="down_right_349" type="car"  route="down_right" depart="276" />
        <vehicle id="down_right_350" type="car"  route="down_right" depart="277" />
        <vehicle id="right_351" type="car"  route="right" depart="278" />
        <vehicle id="up_right_352" type="car"  route="up_right" depart="278" />
        <vehicle id="up_right_353" type="car"  route="up_right" depart="281" />
        <vehicle id="up_left_354" type="car"  route="up_left" depart="282" />
        <vehicle id="left_355" type="car"  route="left" depart="283" />
        <vehicle id="down_left_356" type="car"  route="down_left" depart="283" />
        <vehicle id="right_357" type="car"  route="right" depart="285" />
        <vehicle id="left_358" type="car"  route="left" depart="286" />
        <vehicle id="down_left_359" type="car"  route="down_left" depart="287" />
        <vehicle id="left_up_360" type="car"  route="left_up" depart="288" />
        <vehicle id="left_down_361" type="car"  route="left_down" depart="288" />
        <vehicle id="left_up_362" type="car"  route="left_up" depart="289" />
        <vehicle id="up_left_363" type="car"  route="up_left" depart="289" />
        <vehicle id="right_364" type="car"  route="right" depart="290" />
        <vehicle id="left_down_365" type="car"  route="left_down" depart="290" />
        <vehicle id="left_down_366" type="car"  route="left_down" depart="291" />
        <vehicle id="up_left_367" type="car"  route="up_left" depart="291" />
        <vehicle id="up_right_368" type="car"  route="up_right" depart="293" />
        <vehicle id="left_369" type="car"  route="left" depart="294" />
        <vehicle id="left_down_370" type="car"  route="left_down" depart="295" />
        <vehicle id="up_371" type="car"  route="up" depart="295" />
        <vehicle id="left_372" type="car"  route="left" depart="297" />
        <vehicle id="right_373" type="car"  route="right" depart="298" />
        <vehicle id="down_left_374" type="car"  route="down_left" depart="298" />
        <vehicle id="up_right_375" type="car"  route="up_right" depart="300" />
        <vehicle id="left_376" type="car"  route="left" depart="303" />
        <vehicle id="left_down_377" type="car"  route="left_down" depart="304" />
        <vehicle id="up_378" type="car"  route="up" depart="304" />