<routes>
        <vType id="car" accel="3.5" decel="3.5" sigma="0.5" width="1.8" length="4.5" minGap="1" maxSpeed="25.2" guiShape="passenger"/>

        <route id="right" edges="51o 1i 2o 52i" />
        <route id="right_down" edges="51o 1i 3o 53i" />
        <route id="right_up" edges="51o 1i 4o 54i" />
        <route id="left" edges="52o 2i 1o 51i" />
        <route id="left_down" edges="52o 2i 3o 53i" />
        <route id="left_up" edges="52o 2i 4o 54i" />

        <route id="up" edges="53o 3i 4o 54i" />
,        <route id="up_right" edges="53o 3i 2o 52i" />
        <route id="up_left" edges="53o 3i 1o 51i" />
        <route id="down_right" edges="54o 4i 2o 52i" />
        <route id="down_left" edges="54o 4i 1o 51i" />
        <route id="down" edges="54o 4i 3o 53i" />
        
        <vehicle id="right_0" type="car"  route="right" depart="1.0" />
        <vehicle id="up_1" type="car"  route="up" depart="1.0" />
        <vehicle id="down_right_2" type="car"  route="down_right" depart="1.0" />
        <vehicle id="down_3" type="car"  route="down" depart="1.5" />
        <vehicle id="left_4" type="car"  route="left" depart="2.5" />
        <vehicle id="up_right_5" type="car"  route="up_right" depart="3.0" />
        <vehicle id="right_6" type="car"  route="right" depart="6.0" />
        <vehicle id="left_up_7" type="car"  route="left_up" depart="8.0" />
        <vehicle id="up_8" type="car"  route="up" depart="9.0" />
        <vehicle id="down_right_9" type="car"  route="down_right" depart="9.0" />
        <vehicle id="up_10" type="car"  route="up" depart="12.5" />
        <vehicle id="down_11" type="car"  route="down" depart="13.0" />
        <vehicle id="up_left_12" type="car"  route="up_left" depart="14.5" />
        <vehicle id="right_up_13" type="car"  route="right_up" depart="15.0" />
        <vehicle id="down_left_14" type="car"  route="down_left" depart="15.5" />
        <vehicle id="left_up_15" type="car"  route="left_up" depart="16.0" />
        <vehicle id="right_up_16" type="car"  route="right_up" depart="18.0" />
        <vehicle id="down_left_17" type="car"  route="down_left" depart="18.0" />
        <vehicle id="right_down_18" type="car"  route="right_down" depart="19.5" />
        <vehicle id="left_19" type="car"  route="left" depart="20.0" />
        <vehicle id="down_left_20" type="car"  route="down_left" depart="20.5" />
        <vehicle id="right_down_21" type="car"  route="right_down" depart="21.5" />
        <vehicle id="down_left_22" type="car"  route="down_left" depart="22.0" />
        <vehicle id="right_up_23" type="car"  route="right_up" depart="26.0" />
        <vehicle id="down_right_24" type="car"  route="down_right" depart="26.0" />
        <vehicle id="down_left_25" type="car"  route="down_left" depart="26.5" />
        <vehicle id="right_down_26" type="car"  route="right_down" depart="27.0" />
        <vehicle id="down_left_27" type="car"  route="down_left" depart="27.5" />
        <vehicle id="down_28" type="car"  route="down" depart="28.5" />
        <vehicle id="up_29" type="car"  route="up" depart="29.0" />
        <vehicle id="up_left_30" type="car"  route="up_left" depart="33.0" />
        <vehicle id="down_31" type="car"  route="down" depart="33.5" />
        <vehicle id="right_up_32" type="car"  route="right_up" depart="35.5" />
        <vehicle id="down_33" type="car"  route="down" depart="36.0" />
        <vehicle id="up_right_34" type="car"  route="up_right" depart="36.5" />
        <vehicle id="down_left_35" type="car"  route="down_left" depart="39.0" />
        <vehicle id="left_36" type="car"  route="left" depart="44.0" />
        <vehicle id="left_37" type="car"  route="left" depart="44.5" />
        <vehicle id="right_up_38" type="car"  route="right_up" depart="45.0" />
        <vehicle id="up_right_39" type="car"  route="up_right" depart="45.0" />
        <vehicle id="down_right_40" type="car"  route="down_right" depart="46.5" />
        <vehicle id="left_41" type="car"  route="left" depart="48.5" />
        <vehicle id="up_42" type="car"  route="up" depart="49.5" />
        <vehicle id="left_up_43" type="car"  route="left_up" depart="51.0" />
        <vehicle id="right_44" type="car"  route="right" depart="52.0" />
        <vehicle id="up_45" type="car"  route="up" depart="52.5" />
        <vehicle id="left_up_46" type="car"  route="left_up" depart="53.5" />
        <vehicle id="up_right_47" type="car"  route="up_right" depart="55.0" />
        <vehicle id="up_48" type="car"  route="up" depart="58.5" />
        <vehicle id="right_49" type="car"  route="right" depart="62.0" />
        <vehicle id="up_left_50" type="car"  route="up_left" depart="62.0" />
        <vehicle id="up_right_51" type="car"  route="up_right" depart="62.5" />
        <vehicle id="down_right_52" type="car"  route="down_right" depart="62.5" />
        <vehicle id="down_left_53" type="car"  route="down_left" depart="63.5" />
        <vehicle id="left_down_54" type="car"  route="left_down" depart="65.0" />
        <vehicle id="right_down_55" type="car"  route="right_down" depart="65.5" />
        <vehicle id="left_56" type="car"  route="left" depart="66.0" />
        <vehicle id="left_up_57" type="car"  route="left_up" depart="66.0" />
        <vehicle id="left_58" type="car"  route="left" depart="69.5" />
        <vehicle id="up_left_59" type="car"  route="up_left" depart="70.0" />
        <vehicle id="left_up_60" type="car"  route="left_up" depart="70.5" />
        <vehicle id="up_right_61" type="car"  route="up_right" depart="73.0" />
        <vehicle id="down_right_62" type="car"  route="down_right" depart="73.0" />
        <vehicle id="up_right_63" type="car"  route="up_right" depart="75.5" />
        <vehicle id="down_64" type="car"  route="down" depart="75.5" />
        <vehicle id="up_65" type="car"  route="up" depart="76.5" />
        <vehicle id="down_right_66" type="car"  route="down_right" depart="77.5" />
        <vehicle id="left_down_67" type="car"  route="left_down" depart="79.5" />
        <vehicle id="left_down_68" type="car"  route="left_down" depart="80.0" />
        <vehicle id="up_right_69" type="car"  route="up_right" depart="80.0" />
        <vehicle id="right_down_70" type="car"  route="right_down" depart="80.5" />
        <vehicle id="right_up_71" type="car"  route="right_up" depart="82.0" />
        <vehicle id="right_up_72" type="car"  route="right_up" depart="82.5" />
        <vehicle id="left_up_73" type="car"  route="left_up" depart="82.5" />
        <vehicle id="up_right_74" type="car"  route="up_right" depart="82.5" />
        <vehicle id="right_up_75" type="car"  route="right_up" depart="85.5" />
        <vehicle id="down_left_76" type="car"  route="down_left" depart="86.0" />
        <vehicle id="right_down_77" type="car"  route="right_down" depart="87.5" />
        <vehicle id="left_up_78" type="car"  route="left_up" depart="87.5" />
        <vehicle id="up_right_79" type="car"  route="up_right" depart="89.5" />
        <vehicle id="down_80" type="car"  route="down" depart="91.5" />
        <vehicle id="left_81" type="car"  route="left" depart="92.5" />
        <vehicle id="up_left_82" type="car"  route="up_left" depart="93.5" />
        <vehicle id="up_right_83" type="car"  route="up_right" depart="97.0" />
        <vehicle id="up_left_84" type="car"  route="up_left" depart="98.0" />
        <vehicle id="up_left_85" type="car"  route="up_left" depart="99.0" />
        <vehicle id="up_86" type="car"  route="up" depart="100.0" />
        <vehicle id="up_right_87" type="car"  route="up_right" depart="100.0" />
        <vehicle id="down_right_88" type="car"  route="down_right" depart="100.0" />
        <vehicle id="up_right_89" type="car"  route="up_right" depart="100.5" />
        <vehicle id="left_down_90" type="car"  route="left_down" depart="102.5" />
        <vehicle id="down_left_91" type="car"  route="down_left" depart="105.0" />
        <vehicle id="right_92" type="car"  route="right" depart="105.5" />
        <vehicle id="down_right_93" type="car"  route="down_right" depart="106.5" />
        <vehicle id="right_94" type="car"  route="right" depart="107.5" />
        <vehicle id="left_down_95" type="car"  route="left_down" depart="108.0" />
        <vehicle id="left_96" type="car"  route="left" depart="108.5" />
        <vehicle id="right_up_97" type="car"  route="right_up" depart="111.0" />
        <vehicle id="left_down_98" type="car"  route="left_down" depart="112.0" />
        <vehicle id="left_99" type="car"  route="left" depart="112.5" />
        <vehicle id="left_down_100" type="car"  route="left_down" depart="112.5" />
        <vehicle id="right_down_101" type="car"  route="right_down" depart="113.5" />
        <vehicle id="up_left_102" type="car"  route="up_left" depart="113.5" />
        <vehicle id="down_right_103" type="car"  route="down_right" depart="114.0" />
        <vehicle id="up_left_104" type="car"  route="up_left" depart="114.5" />
        <vehicle id="down_105" type="car"  route="down" depart="115.0" />
        <vehicle id="right_down_106" type="car"  route="right_down" depart="116.0" />
        <vehicle id="down_left_107" type="car"  route="down_left" depart="116.0" />
        <vehicle id="right_up_108" type="car"  route="right_up" depart="117.0" />
        <vehicle id="right_up_109" type="car"  route="right_up" depart="118.0" />
        <vehicle id="left_down_110" type="car"  route="left_down" depart="119.0" />
        <vehicle id="down_right_111" type="car"  route="down_right" depart="120.5" />
        <vehicle id="right_112" type="car"  route="right" depart="121.5" />
        <vehicle id="left_113" type="car"  route="left" depart="122.0" />
        <vehicle id="right_114" type="car"  route="right" depart="123.5" />
        <vehicle id="left_down_115" type="car"  route="left_down" depart="128.0" />
        <vehicle id="down_left_116" type="car"  route="down_left" depart="129.5" />
        <vehicle id="down_117" type="car"  route="down" depart="130.0" />
        <vehicle id="left_up_118" type="car"  route="left_up" depart="132.5" />
        <vehicle id="right_119" type="car"  route="right" depart="133.5" />
        <vehicle id="up_right_120" type="car"  route="up_right" depart="135.5" />
        <vehicle id="down_121" type="car"  route="down" depart="137.5" />
        <vehicle id="down_left_122" type="car"  route="down_left" depart="138.5" />
        <vehicle id="up_right_123" type="car"  route="up_right" depart="141.5" />
        <vehicle id="left_124" type="car"  route="left" depart="144.0" />
        <vehicle id="left_down_125" type="car"  route="left_down" depart="145.0" />
        <vehicle id="left_down_126" type="car"  route="left_down" depart="146.0" />
        <vehicle id="up_127" type="car"  route="up" depart="148.5" />
        <vehicle id="left_128" type="car"  route="left" depart="149.5" />
        <vehicle id="left_down_129" type="car"  route="left_down" depart="153.0" />
        <vehicle id="up_left_130" type="car"  route="up_left" depart="153.5" />
        <vehicle id="right_down_131" type="car"  route="right_down" depart="157.0" />
        <vehicle id="up_left_132" type="car"  route="up_left" depart="157.5" />
        <vehicle id="right_up_133" type="car"  route="right_up" depart="158.5" />
        <vehicle id="up_134" type="car"  route="up" depart="158.5" />
        <vehicle id="up_left_135" type="car"  route="up_left" depart="159.5" />
        <vehicle id="right_136" type="car"  route="right" depart="161.5" />
        <vehicle id="down_right_137" type="car"  route="down_right" depart="163.5" />
        <vehicle id="up_138" type="car"  route="up" depart="165.5" />
        <vehicle id="down_139" type="car"  route="down" depart="165.5" />
        <vehicle id="down_left_140" type="car"  route="down_left" depart="167.0" />
        <vehicle id="down_141" type="car"  route="down" depart="167.0" />
        <vehicle id="down_left_142" type="car"  route="down_left" depart="167.5" />
        <vehicle id="left_down_143" type="car"  route="left_down" depart="171.5" />
        <vehicle id="left_up_144" type="car"  route="left_up" depart="173.0" />
        <vehicle id="down_right_145" type="car"  route="down_right" depart="173.5" />
        <vehicle id="up_left_146" type="car"  route="up_left" depart="174.0" />
        <vehicle id="right_up_147" type="car"  route="right_up" depart="174.5" />
        <vehicle id="left_148" type="car"  route="left" depart="177.5" />
        <vehicle id="up_149" type="car"  route="up" depart="178.5" />
        <vehicle id="up_left_150" type="car"  route="up_left" depart="180.0" />
        <vehicle id="up_151" type="car"  route="up" depart="181.0" />
        <vehicle id="up_left_152" type="car"  route="up_left" depart="181.0" />
        <vehicle id="down_right_153" type="car"  route="down_right" depart="181.0" />
        <vehicle id="up_154" type="car"  route="up" depart="182.0" />
        <vehicle id="up_left_155" type="car"  route="up_left" depart="182.0" />
        <vehicle id="left_up_156" type="car"  route="left_up" depart="184.5" />
        <vehicle id="left_157" type="car"  route="left" depart="185.0" />
        <vehicle id="up_right_158" type="car"  route="up_right" depart="188.0" />
        <vehicle id="down_right_159" type="car"  route="down_right" depart="188.0" />
        <vehicle id="down_left_160" type="car"  route="down_left" depart="188.5" />
        <vehicle id="right_up_161" type="car"  route="right_up" depart="191.0" />
        <vehicle id="up_162" type="car"  route="up" depart="192.5" />
        <vehicle id="up_163" type="car"  route="up" depart="193.0" />
        <vehicle id="right_up_164" type="car"  route="right_up" depart="193.5" />
        <vehicle id="up_165" type="car"  route="up" depart="193.5" />
        <vehicle id="down_left_166" type="car"  route="down_left" depart="193.5" />
        <vehicle id="right_down_167" type="car"  route="right_down" depart="194.0" />
        <vehicle id="up_right_168" type="car"  route="up_right" depart="195.5" />
        <vehicle id="up_169" type="car"  route="up" depart="197.0" />
        <vehicle id="down_170" type="car"  route="down" depart="197.5" />
        <vehicle id="left_up_171" type="car"  route="left_up" depart="202.5" />
        <vehicle id="left_up_172" type="car"  route="left_up" depart="203.0" />
        <vehicle id="up_left_173" type="car"  route="up_left" depart="207.5" />
        <vehicle id="up_174" type="car"  route="up" depart="208.0" />
        <vehicle id="down_left_175" type="car"  route="down_left" depart="208.0" />
        <vehicle id="left_up_176" type="car"  route="left_up" depart="208.5" />
        <vehicle id="right_up_177" type="car"  route="right_up" depart="209.0" />
        <vehicle id="left_down_178" type="car"  route="left_down" depart="209.5" />
        <vehicle id="up_left_179" type="car"  route="up_left" depart="212.0" />
        <vehicle id="left_up_180" type="car"  route="left_up" depart="214.5" />
        <vehicle id="up_left_181" type="car"  route="up_left" depart="216.5" />
        <vehicle id="right_down_182" type="car"  route="right_down" depart="218.5" />
        <vehicle id="down_left_183" type="car"  route="down_left" depart="220.5" />
        <vehicle id="left_up_184" type="car"  route="left_up" depart="223.5" />
        <vehicle id="down_right_185" type="car"  route="down_right" depart="227.0" />
        <vehicle id="down_right_186" type="car"  route="down_right" depart="228.5" />
        <vehicle id="left_down_187" type="car"  route="left_down" depart="230.0" />
        <vehicle id="left_up_188" type="car"  route="left_up" depart="233.5" />
        <vehicle id="up_right_189" type="car"  route="up_right" depart="233.5" />
        <vehicle id="left_up_190" type="car"  route="left_up" depart="236.0" />
        <vehicle id="up_left_191" type="car"  route="up_left" depart="237.0" />
        <vehicle id="left_down_192" type="car"  route="left_down" depart="237.5" />
        <vehicle id="up_193" type="car"  route="up" depart="238.0" />
        <vehicle id="down_194" type="car"  route="down" depart="238.0" />
        <vehicle id="down_left_195" type="car"  route="down_left" depart="238.5" />
        <vehicle id="down_196" type="car"  route="down" depart="238.5" />
        <vehicle id="right_down_197" type="car"  route="right_down" depart="241.5" />
        <vehicle id="left_198" type="car"  route="left" depart="241.5" />
        <vehicle id="left_down_199" type="car"  route="left_down" depart="241.5" />
        <vehicle id="left_down_200" type="car"  route="left_down" depart="242.5" />
        <vehicle id="right_up_201" type="car"  route="right_up" depart="246.0" />
        <vehicle id="down_right_202" type="car"  route="down_right" depart="246.5" />
        <vehicle id="down_right_203" type="car"  route="down_right" depart="248.0" />
        <vehicle id="left_204" type="car"  route="left" depart="250.5" />
        <vehicle id="right_up_205" type="car"  route="right_up" depart="253.5" />
        <vehicle id="up_left_206" type="car"  route="up_left" depart="253.5" />
        <vehicle id="down_left_207" type="car"  route="down_left" depart="253.5" />
        <vehicle id="right_down_208" type="car"  route="right_down" depart="257.0" />
        <vehicle id="right_up_209" type="car"  route="right_up" depart="259.0" />
        <vehicle id="down_right_210" type="car"  route="down_right" depart="259.5" />
        <vehicle id="up_left_211" type="car"  route="up_left" depart="260.0" />
        <vehicle id="down_right_212" type="car"  route="down_right" depart="260.0" />
        <vehicle id="up_213" type="car"  route="up" depart="260.5" />
        <vehicle id="right_down_214" type="car"  route="right_down" depart="261.0" />
        <vehicle id="right_215" type="car"  route="right" depart="261.5" />
        <vehicle id="left_up_216" type="car"  route="left_up" depart="261.5" />
        <vehicle id="left_down_217" type="car"  route="left_down" depart="262.5" />
        <vehicle id="up_left_218" type="car"  route="up_left" depart="263.0" />
        <vehicle id="right_up_219" type="car"  route="right_up" depart="265.0" />
        <vehicle id="right_up_220" type="car"  route="right_up" depart="267.0" />
        <vehicle id="left_down_221" type="car"  route="left_down" depart="267.5" />
        <vehicle id="down_222" type="car"  route="down" depart="273.0" />
        <vehicle id="right_down_223" type="car"  route="right_down" depart="273.5" />
        <vehicle id="down_left_224" type="car"  route="down_left" depart="279.0" />
        <vehicle id="up_left_225" type="car"  route="up_left" depart="280.5" />
        <vehicle id="left_down_226" type="car"  route="left_down" depart="282.5" />
        <vehicle id="up_227" type="car"  route="up" depart="284.5" />
        <vehicle id="left_up_228" type="car"  route="left_up" depart="285.0" />
        <vehicle id="left_up_229" type="car"  route="left_up" depart="285.5" />
        <vehicle id="right_up_230" type="car"  route="right_up" depart="286.5" />
        <vehicle id="up_231" type="car"  route="up" depart="287.5" />
        <vehicle id="right_up_232" type="car"  route="right_up" depart="289.0" />
        <vehicle id="down_left_233" type="car"  route="down_left" depart="289.0" />
        <vehicle id="left_down_234" type="car"  route="left_down" depart="293.0" />
        <vehicle id="up_right_235" type="car"  route="up_right" depart="293.0" />
        <vehicle id="right_236" type="car"  route="right" depart="294.0" />
        <vehicle id="right_up_237" type="car"  route="right_up" depart="294.5" />
        <vehicle id="right_238" type="car"  route="right" depart="296.0" />
        <vehicle id="up_239" type="car"  route="up" depart="299.0" />
        <vehicle id="down_left_240" type="car"  route="down_left" depart="299.0" />
        <vehicle id="left_up_241" type="car"  route="left_up" depart="299.5" />
        <vehicle id="down_242" type="car"  route="down" depart="300.0" />
        <vehicle id="down_243" type="car"  route="down" depart="300.5" />
        <vehicle id="right_down_244" type="car"  route="right_down" depart="301.5" />
        <vehicle id="up_245" type="car"  route="up" depart="301.5" />
        <vehicle id="up_246" type="car"  route="up" depart="302.0" />
        <vehicle id="right_down_247" type="car"  route="right_down" depart="302.5" />
        <vehicle id="down_left_248" type="car"  route="down_left" depart="305.0" />
        <vehicle id="down_249" type="car"  route="down" depart="305.0" />
        <vehicle id="up_left_250" type="car"  route="up_left" depart="307.0" />
        <vehicle id="right_up_251" type="car"  route="right_up" depart="309.0" />
        <vehicle id="left_up_252" type="car"  route="left_up" depart="310.5" />
        <vehicle id="left_down_253" type="car"  route="left_down" depart="312.0" />
        <vehicle id="down_right_254" type="car"  route="down_right" depart="313.0" />
        <vehicle id="right_up_255" type="car"  route="right_up" depart="314.5" />
        <vehicle id="down_right_256" type="car"  route="down_right" depart="315.5" />
        <vehicle id="up_right_257" type="car"  route="up_right" depart="316.0" />
        <vehicle id="left_down_258" type="car"  route="left_down" depart="317.0" />
        <vehicle id="up_left_259" type="car"  route="up_left" depart="318.0" />
        <vehicle id="right_260" type="car"  route="right" depart="319.5" />
        <vehicle id="up_261" type="car"  route="up" depart="321.5" />
        <vehicle id="down_262" type="car"  route="down" depart="323.0" />
        <vehicle id="down_right_263" type="car"  route="down_right" depart="325.5" />
        <vehicle id="up_right_264" type="car"  route="up_right" depart="329.0" />
        <vehicle id="left_down_265" type="car"  route="left_down" depart="329.5" />
        <vehicle id="up_right_266" type="car"  route="up_right" depart="331.5" />
        <vehicle id="down_right_267" type="car"  route="down_right" depart="331.5" />
        <vehicle id="up_268" type="car"  route="up" depart="333.0" />
        <vehicle id="up_right_269" type="car"  route="up_right" depart="333.5" />
        <vehicle id="up_left_270" type="car"  route="up_left" depart="333.5" />
        <vehicle id="right_271" type="car"  route="right" depart="334.0" />
        <vehicle id="right_272" type="car"  route="right" depart="338.0" />
        <vehicle id="left_273" type="car"  route="left" depart="338.0" />
        <vehicle id="up_274" type="car"  route="up" depart="338.5" />
        <vehicle id="left_down_275" type="car"  route="left_down" depart="339.0" />
        <vehicle id="up_276" type="car"  route="up" depart="340.5" />
        <vehicle id="down_left_277" type="car"  route="down_left" depart="344.5" />
        <vehicle id="left_278" type="car"  route="left" depart="346.0" />
        <vehicle id="left_up_279" type="car"  route="left_up" depart="346.5" />
        <vehicle id="left_280" type="car"  route="left" depart="347.5" />
        <vehicle id="down_left_281" type="car"  route="down_left" depart="348.5" />
        <vehicle id="right_up_282" type="car"  route="right_up" depart="350.5" />
        <vehicle id="right_down_283" type="car"  route="right_down" depart="351.0" />
        <vehicle id="right_down_284" type="car"  route="right_down" depart="351.5" />
        <vehicle id="left_up_285" type="car"  route="left_up" depart="352.0" />
        <vehicle id="left_286" type="car"  route="left" depart="353.0" />
        <vehicle id="right_down_287" type="car"  route="right_down" depart="356.5" />
        <vehicle id="left_288" type="car"  route="left" depart="358.0" />
        <vehicle id="left_down_289" type="car"  route="left_down" depart="359.5" />
        <vehicle id="right_290" type="car"  route="right" depart="361.0" />
        <vehicle id="left_down_291" type="car"  route="left_down" depart="361.5" />
        <vehicle id="right_292" type="car"  route="right" depart="362.0" />
        <vehicle id="up_left_293" type="car"  route="up_left" depart="362.0" />
        <vehicle id="up_left_294" type="car"  route="up_left" depart="364.0" />
        <vehicle id="left_295" type="car"  route="left" depart="364.5" />
        <vehicle id="left_up_296" type="car"  route="left_up" depart="365.5" />
        <vehicle id="right_up_297" type="car"  route="right_up" depart="367.0" />
        <vehicle id="left_down_298" type="car"  route="left_down" depart="369.5" />
        <vehicle id="right_down_299" type="car"  route="right_down" depart="371.0" />
        <vehicle id="up_300" type="car"  route="up" depart="377.0" />
        <vehicle id="right_up_301" type="car"  route="right_up" depart="378.0" />
        <vehicle id="right_up_302" type="car"  route="right_up" depart="379.0" />
        <vehicle id="down_right_303" type="car"  route="down_right" depart="380.5" />
        <vehicle id="down_left_304" type="car"  route="down_left" depart="382.5" />
        <vehicle id="left_up_305" type="car"  route="left_up" depart="385.5" />
        <vehicle id="up_306" type="car"  route="up" depart="385.5" />
        <vehicle id="down_307" type="car"  route="down" depart="385.5" />
        <vehicle id="right_308" type="car"  route="right" depart="386.5" />
        <vehicle id="left_up_309" type="car"  route="left_up" depart="386.5" />
        <vehicle id="left_310" type="car"  route="left" depart="388.0" />
        <vehicle id="up_right_311" type="car"  route="up_right" depart="388.5" />
        <vehicle id="up_312" type="car"  route="up" depart="389.5" />
        <vehicle id="right_up_313" type="car"  route="right_up" depart="391.5" />
        <vehicle id="right_up_314" type="car"  route="right_up" depart="392.5" />
        <vehicle id="down_right_315" type="car"  route="down_right" depart="394.5" />
        <vehicle id="up_316" type="car"  route="up" depart="395.5" />
        <vehicle id="up_317" type="car"  route="up" depart="396.0" />
        <vehicle id="up_left_318" type="car"  route="up_left" depart="397.5" />
        <vehicle id="left_319" type="car"  route="left" depart="399.5" />
        <vehicle id="up_right_320" type="car"  route="up_right" depart="399.5" />
        <vehicle id="right_321" type="car"  route="right" depart="401.5" />
        <vehicle id="up_left_322" type="car"  route="up_left" depart="401.5" />
        <vehicle id="right_323" type="car"  route="right" depart="403.0" />
        <vehicle id="up_324" type="car"  route="up" depart="405.5" />
        <vehicle id="right_325" type="car"  route="right" depart="406.0" />
        <vehicle id="right_326" type="car"  route="right" depart="407.0" />
        <vehicle id="down_left_327" type="car"  route="down_left" depart="407.5" />
        <vehicle id="right_328" type="car"  route="right" depart="409.5" />
        <vehicle id="down_right_329" type="car"  route="down_right" depart="416.5" />
        <vehicle id="down_330" type="car"  route="down" depart="416.5" />
        <vehicle id="left_331" type="car"  route="left" depart="417.0" />
        <vehicle id="right_332" type="car"  route="right" depart="419.0" />
        <vehicle id="up_right_333" type="car"  route="up_right" depart="419.5" />
        <vehicle id="left_334" type="car"  route="left" depart="420.0" />
        <vehicle id="left_up_335" type="car"  route="left_up" depart="420.0" />
        <vehicle id="up_left_336" type="car"  route="up_left" depart="420.5" />
        <vehicle id="up_337" type="car"  route="up" depart="421.0" />
        <vehicle id="down_right_338" type="car"  route="down_right" depart="422.0" />
        <vehicle id="left_up_339" type="car"  route="left_up" depart="423.0" />
        <vehicle id="left_340" type="car"  route="left" depart="423.5" />
        <vehicle id="up_right_341" type="car"  route="up_right" depart="424.0" />
        <vehicle id="left_342" type="car"  route="left" depart="425.0" />
        <vehicle id="left_up_343" type="car"  route="left_up" depart="427.0" />
        <vehicle id="down_344" type="car"  route="down" depart="429.0" />
        <vehicle id="left_down_345" type="car"  route="left_down" depart="432.5" />
        <vehicle id="up_right_346" type="car"  route="up_right" depart="434.0" />
        <vehicle id="left_up_347" type="car"  route="left_up" depart="435.0" />
        <vehicle id="up_348" type="car"  route="up" depart="435.0" />
        <vehicle id="up_349" type="car"  route="up" depart="435.5" />
        <vehicle id="left_down_350" type="car"  route="left_down" depart="436.0" />
        <vehicle id="right_up_351" type="car"  route="right_up" depart="438.0" />
        <vehicle id="up_352" type="car"  route="up" depart="438.0" />
        <vehicle id="right_up_353" type="car"  route="right_up" depart="439.0" />
        <vehicle id="left_down_354" type="car"  route="left_down" depart="442.0" />
        <vehicle id="up_355" type="car"  route="up" depart="442.0" />
        <vehicle id="up_right_356" type="car"  route="up_right" depart="442.5" />
        <vehicle id="up_left_357" type="car"  route="up_left" depart="443.0" />
        <vehicle id="down_left_358" type="car"  route="down_left" depart="443.0" />
        <vehicle id="left_359" type="car"  route="left" depart="446.0" />
        <vehicle id="down_right_360" type="car"  route="down_right" depart="446.5" />
        <vehicle id="down_361" type="car"  route="down" depart="447.0" />
        <vehicle id="down_right_362" type="car"  route="down_right" depart="447.5" />
        <vehicle id="left_363" type="car"  route="left" depart="448.0" />
        <vehicle id="right_364" type="car"  route="right" depart="448.5" />
        <vehicle id="left_365" type="car"  route="left" depart="448.5" />
        <vehicle id="left_366" type="car"  route="left" depart="451.0" />
        <vehicle id="up_right_367" type="car"  route="up_right" depart="451.0" />
        <vehicle id="up_368" type="car"  route="up" depart="451.5" />
        <vehicle id="left_up_369" type="car"  route="left_up" depart="454.0" />