<routes>
        <vType id="car" accel="3.5" decel="3.5" sigma="0.5" width="1.8" length="4.5" minGap="1" maxSpeed="25.2" guiShape="passenger"/>

        <route id="right" edges="51o 1i 2o 52i" />
        <route id="right_down" edges="51o 1i 3o 53i" />
        <route id="right_up" edges="51o 1i 4o 54i" />
        <route id="left" edges="52o 2i 1o 51i" />
        <route id="left_down" edges="52o 2i 3o 53i" />
        <route id="left_up" edges="52o 2i 4o 54i" />

        <route id="up" edges="53o 3i 4o 54i" />
,        <route id="up_right" edges="53o 3i 2o 52i" />
        <route id="up_left" edges="53o 3i 1o 51i" />
        <route id="down_right" edges="54o 4i 2o 52i" />
        <route id="down_left" edges="54o 4i 1o 51i" />
        <route id="down" edges="54o 4i 3o 53i" />
        
        <vehicle id="right_0" type="car"  route="right" depart="1.0" />
        <vehicle id="down_1" type="car"  route="down" depart="1.0" />
        <vehicle id="up_2" type="car"  route="up" depart="1.5" />
        <vehicle id="left_3" type="car"  route="left" depart="2.0" />
        <vehicle id="down_4" type="car"  route="down" depart="2.0" />
        <vehicle id="right_5" type="car"  route="right" depart="2.5" />
        <vehicle id="up_6" type="car"  route="up" depart="2.5" />
        <vehicle id="right_7" type="car"  route="right" depart="3.0" />
        <vehicle id="left_8" type="car"  route="left" depart="3.0" />
        <vehicle id="up_9" type="car"  route="up" depart="3.0" />
        <vehicle id="right_10" type="car"  route="right" depart="3.5" />
        <vehicle id="down_11" type="car"  route="down" depart="3.5" />
        <vehicle id="down_12" type="car"  route="down" depart="5.5" />
        <vehicle id="left_13" type="car"  route="left" depart="6.0" />
        <vehicle id="down_14" type="car"  route="down" depart="6.0" />
        <vehicle id="right_15" type="car"  route="right" depart="7.0" />
        <vehicle id="left_16" type="car"  route="left" depart="7.0" />
        <vehicle id="down_17" type="car"  route="down" depart="7.5" />
        <vehicle id="right_18" type="car"  route="right" depart="9.5" />
        <vehicle id="right_19" type="car"  route="right" depart="10.0" />
        <vehicle id="left_20" type="car"  route="left" depart="10.0" />
        <vehicle id="down_21" type="car"  route="down" depart="11.0" />
        <vehicle id="right_22" type="car"  route="right" depart="11.5" />
        <vehicle id="right_23" type="car"  route="right" depart="12.0" />
        <vehicle id="up_24" type="car"  route="up" depart="12.5" />
        <vehicle id="left_25" type="car"  route="left" depart="13.5" />
        <vehicle id="left_26" type="car"  route="left" depart="14.0" />
        <vehicle id="left_27" type="car"  route="left" depart="14.5" />
        <vehicle id="left_28" type="car"  route="left" depart="15.0" />
        <vehicle id="left_29" type="car"  route="left" depart="15.5" />
        <vehicle id="right_30" type="car"  route="right" depart="16.0" />
        <vehicle id="up_31" type="car"  route="up" depart="16.0" />
        <vehicle id="right_32" type="car"  route="right" depart="16.5" />
        <vehicle id="right_33" type="car"  route="right" depart="17.5" />
        <vehicle id="right_34" type="car"  route="right" depart="19.0" />
        <vehicle id="up_35" type="car"  route="up" depart="19.5" />
        <vehicle id="down_36" type="car"  route="down" depart="20.5" />
        <vehicle id="right_37" type="car"  route="right" depart="21.5" />
        <vehicle id="left_38" type="car"  route="left" depart="21.5" />
        <vehicle id="up_39" type="car"  route="up" depart="22.0" />
        <vehicle id="right_40" type="car"  route="right" depart="22.5" />
        <vehicle id="right_41" type="car"  route="right" depart="23.0" />
        <vehicle id="up_42" type="car"  route="up" depart="23.5" />
        <vehicle id="up_43" type="car"  route="up" depart="25.0" />
        <vehicle id="up_44" type="car"  route="up" depart="25.5" />
        <vehicle id="left_45" type="car"  route="left" depart="26.0" />
        <vehicle id="down_46" type="car"  route="down" depart="26.0" />
        <vehicle id="left_47" type="car"  route="left" depart="26.5" />
        <vehicle id="right_48" type="car"  route="right" depart="27.0" />
        <vehicle id="left_49" type="car"  route="left" depart="27.0" />
        <vehicle id="down_50" type="car"  route="down" depart="27.0" />
        <vehicle id="right_51" type="car"  route="right" depart="27.5" />
        <vehicle id="down_52" type="car"  route="down" depart="27.5" />
        <vehicle id="right_53" type="car"  route="right" depart="28.0" />
        <vehicle id="right_54" type="car"  route="right" depart="29.0" />
        <vehicle id="right_55" type="car"  route="right" depart="29.5" />
        <vehicle id="right_56" type="car"  route="right" depart="30.0" />
        <vehicle id="left_57" type="car"  route="left" depart="30.0" />
        <vehicle id="up_58" type="car"  route="up" depart="30.0" />
        <vehicle id="up_59" type="car"  route="up" depart="31.0" />
        <vehicle id="right_60" type="car"  route="right" depart="31.5" />
        <vehicle id="right_61" type="car"  route="right" depart="32.5" />
        <vehicle id="down_62" type="car"  route="down" depart="32.5" />
        <vehicle id="right_63" type="car"  route="right" depart="33.5" />
        <vehicle id="left_64" type="car"  route="left" depart="34.0" />
        <vehicle id="up_65" type="car"  route="up" depart="35.5" />
        <vehicle id="up_66" type="car"  route="up" depart="36.0" />
        <vehicle id="right_67" type="car"  route="right" depart="36.5" />
        <vehicle id="up_68" type="car"  route="up" depart="36.5" />
        <vehicle id="right_69" type="car"  route="right" depart="38.0" />
        <vehicle id="up_70" type="car"  route="up" depart="38.0" />
        <vehicle id="down_71" type="car"  route="down" depart="38.0" />
        <vehicle id="right_72" type="car"  route="right" depart="38.5" />
        <vehicle id="up_73" type="car"  route="up" depart="38.5" />
        <vehicle id="down_74" type="car"  route="down" depart="38.5" />
        <vehicle id="right_75" type="car"  route="right" depart="39.0" />
        <vehicle id="left_76" type="car"  route="left" depart="39.5" />
        <vehicle id="right_77" type="car"  route="right" depart="40.0" />
        <vehicle id="down_78" type="car"  route="down" depart="40.0" />
        <vehicle id="right_79" type="car"  route="right" depart="40.5" />
        <vehicle id="right_80" type="car"  route="right" depart="41.0" />
        <vehicle id="up_81" type="car"  route="up" depart="41.0" />
        <vehicle id="right_82" type="car"  route="right" depart="41.5" />
        <vehicle id="right_83" type="car"  route="right" depart="42.0" />
        <vehicle id="right_84" type="car"  route="right" depart="42.5" />
        <vehicle id="left_85" type="car"  route="left" depart="42.5" />
        <vehicle id="right_86" type="car"  route="right" depart="43.0" />
        <vehicle id="left_87" type="car"  route="left" depart="43.0" />
        <vehicle id="up_88" type="car"  route="up" depart="43.5" />
        <vehicle id="up_89" type="car"  route="up" depart="44.0" />
        <vehicle id="right_90" type="car"  route="right" depart="45.5" />
        <vehicle id="up_91" type="car"  route="up" depart="45.5" />
        <vehicle id="right_92" type="car"  route="right" depart="46.0" />
        <vehicle id="right_93" type="car"  route="right" depart="46.5" />
        <vehicle id="left_94" type="car"  route="left" depart="46.5" />
        <vehicle id="down_95" type="car"  route="down" depart="46.5" />
        <vehicle id="right_96" type="car"  route="right" depart="47.0" />
        <vehicle id="down_97" type="car"  route="down" depart="47.5" />
        <vehicle id="left_98" type="car"  route="left" depart="48.0" />
        <vehicle id="left_99" type="car"  route="left" depart="51.0" />
        <vehicle id="right_100" type="car"  route="right" depart="51.5" />
        <vehicle id="left_101" type="car"  route="left" depart="52.0" />
        <vehicle id="right_102" type="car"  route="right" depart="52.5" />
        <vehicle id="left_103" type="car"  route="left" depart="52.5" />
        <vehicle id="up_104" type="car"  route="up" depart="53.0" />
        <vehicle id="down_105" type="car"  route="down" depart="53.0" />
        <vehicle id="right_106" type="car"  route="right" depart="54.0" />
        <vehicle id="left_107" type="car"  route="left" depart="54.5" />
        <vehicle id="right_108" type="car"  route="right" depart="55.0" />
        <vehicle id="down_109" type="car"  route="down" depart="56.0" />
        <vehicle id="left_110" type="car"  route="left" depart="56.5" />
        <vehicle id="up_111" type="car"  route="up" depart="56.5" />
        <vehicle id="down_112" type="car"  route="down" depart="56.5" />
        <vehicle id="left_113" type="car"  route="left" depart="57.0" />
        <vehicle id="down_114" type="car"  route="down" depart="57.0" />
        <vehicle id="right_115" type="car"  route="right" depart="57.5" />
        <vehicle id="down_116" type="car"  route="down" depart="58.0" />
        <vehicle id="right_117" type="car"  route="right" depart="58.5" />
        <vehicle id="up_118" type="car"  route="up" depart="58.5" />
        <vehicle id="up_119" type="car"  route="up" depart="59.0" />
        <vehicle id="left_120" type="car"  route="left" depart="60.0" />
        <vehicle id="down_121" type="car"  route="down" depart="60.0" />
        <vehicle id="right_122" type="car"  route="right" depart="60.5" />
        <vehicle id="up_123" type="car"  route="up" depart="60.5" />
        <vehicle id="right_124" type="car"  route="right" depart="61.0" />
        <vehicle id="down_125" type="car"  route="down" depart="61.0" />
        <vehicle id="up_126" type="car"  route="up" depart="62.5" />
        <vehicle id="down_127" type="car"  route="down" depart="63.0" />
        <vehicle id="down_128" type="car"  route="down" depart="63.5" />
        <vehicle id="up_129" type="car"  route="up" depart="64.5" />
        <vehicle id="up_130" type="car"  route="up" depart="65.0" />
        <vehicle id="right_131" type="car"  route="right" depart="65.5" />
        <vehicle id="up_132" type="car"  route="up" depart="65.5" />
        <vehicle id="right_133" type="car"  route="right" depart="68.5" />
        <vehicle id="left_134" type="car"  route="left" depart="69.0" />
        <vehicle id="up_135" type="car"  route="up" depart="69.0" />
        <vehicle id="right_136" type="car"  route="right" depart="69.5" />
        <vehicle id="up_137" type="car"  route="up" depart="69.5" />
        <vehicle id="right_138" type="car"  route="right" depart="70.5" />
        <vehicle id="down_139" type="car"  route="down" depart="71.0" />
        <vehicle id="right_140" type="car"  route="right" depart="71.5" />
        <vehicle id="up_141" type="car"  route="up" depart="71.5" />
        <vehicle id="down_142" type="car"  route="down" depart="71.5" />
        <vehicle id="right_143" type="car"  route="right" depart="72.0" />
        <vehicle id="up_144" type="car"  route="up" depart="72.0" />
        <vehicle id="left_145" type="car"  route="left" depart="72.5" />
        <vehicle id="up_146" type="car"  route="up" depart="72.5" />
        <vehicle id="up_147" type="car"  route="up" depart="73.0" />
        <vehicle id="right_148" type="car"  route="right" depart="73.5" />
        <vehicle id="left_149" type="car"  route="left" depart="73.5" />
        <vehicle id="left_150" type="car"  route="left" depart="74.0" />
        <vehicle id="left_151" type="car"  route="left" depart="75.0" />
        <vehicle id="left_152" type="car"  route="left" depart="76.0" />
        <vehicle id="up_153" type="car"  route="up" depart="76.5" />
        <vehicle id="down_154" type="car"  route="down" depart="76.5" />
        <vehicle id="left_155" type="car"  route="left" depart="77.0" />
        <vehicle id="right_156" type="car"  route="right" depart="77.5" />
        <vehicle id="up_157" type="car"  route="up" depart="78.5" />
        <vehicle id="left_158" type="car"  route="left" depart="79.0" />
        <vehicle id="up_159" type="car"  route="up" depart="79.0" />
        <vehicle id="down_160" type="car"  route="down" depart="79.0" />
        <vehicle id="right_161" type="car"  route="right" depart="79.5" />
        <vehicle id="up_162" type="car"  route="up" depart="79.5" />
        <vehicle id="right_163" type="car"  route="right" depart="80.0" />
        <vehicle id="up_164" type="car"  route="up" depart="80.0" />
        <vehicle id="right_165" type="car"  route="right" depart="81.0" />
        <vehicle id="down_166" type="car"  route="down" depart="81.0" />
        <vehicle id="right_167" type="car"  route="right" depart="81.5" />
        <vehicle id="left_168" type="car"  route="left" depart="81.5" />
        <vehicle id="up_169" type="car"  route="up" depart="81.5" />
        <vehicle id="right_170" type="car"  route="right" depart="82.5" />
        <vehicle id="right_171" type="car"  route="right" depart="83.0" />
        <vehicle id="left_172" type="car"  route="left" depart="83.0" />
        <vehicle id="down_173" type="car"  route="down" depart="83.0" />
        <vehicle id="right_174" type="car"  route="right" depart="83.5" />
        <vehicle id="up_175" type="car"  route="up" depart="84.5" />
        <vehicle id="down_176" type="car"  route="down" depart="84.5" />
        <vehicle id="right_177" type="car"  route="right" depart="85.0" />
        <vehicle id="up_178" type="car"  route="up" depart="85.5" />
        <vehicle id="right_179" type="car"  route="right" depart="87.0" />
        <vehicle id="left_180" type="car"  route="left" depart="87.5" />
        <vehicle id="left_181" type="car"  route="left" depart="88.0" />
        <vehicle id="down_182" type="car"  route="down" depart="89.0" />
        <vehicle id="down_183" type="car"  route="down" depart="90.0" />
        <vehicle id="right_184" type="car"  route="right" depart="90.5" />
        <vehicle id="left_185" type="car"  route="left" depart="90.5" />
        <vehicle id="down_186" type="car"  route="down" depart="90.5" />
        <vehicle id="left_187" type="car"  route="left" depart="91.0" />
        <vehicle id="up_188" type="car"  route="up" depart="91.0" />
        <vehicle id="down_189" type="car"  route="down" depart="91.0" />
        <vehicle id="up_190" type="car"  route="up" depart="91.5" />
        <vehicle id="right_191" type="car"  route="right" depart="92.0" />
        <vehicle id="up_192" type="car"  route="up" depart="92.5" />
        <vehicle id="down_193" type="car"  route="down" depart="93.0" />
        <vehicle id="left_194" type="car"  route="left" depart="93.5" />
        <vehicle id="down_195" type="car"  route="down" depart="93.5" />
        <vehicle id="down_196" type="car"  route="down" depart="94.0" />
        <vehicle id="right_197" type="car"  route="right" depart="94.5" />
        <vehicle id="left_198" type="car"  route="left" depart="94.5" />
        <vehicle id="up_199" type="car"  route="up" depart="96.0" />
        <vehicle id="right_200" type="car"  route="right" depart="97.0" />
        <vehicle id="left_201" type="car"  route="left" depart="97.0" />
        <vehicle id="up_202" type="car"  route="up" depart="97.0" />
        <vehicle id="down_203" type="car"  route="down" depart="97.0" />
        <vehicle id="right_204" type="car"  route="right" depart="97.5" />
        <vehicle id="right_205" type="car"  route="right" depart="98.0" />
        <vehicle id="right_206" type="car"  route="right" depart="98.5" />
        <vehicle id="up_207" type="car"  route="up" depart="98.5" />
        <vehicle id="down_208" type="car"  route="down" depart="98.5" />
        <vehicle id="down_209" type="car"  route="down" depart="99.0" />
        <vehicle id="right_210" type="car"  route="right" depart="99.5" />
        <vehicle id="down_211" type="car"  route="down" depart="99.5" />
        <vehicle id="down_212" type="car"  route="down" depart="100.0" />
        <vehicle id="right_213" type="car"  route="right" depart="100.5" />
        <vehicle id="right_214" type="car"  route="right" depart="102.0" />
        <vehicle id="up_215" type="car"  route="up" depart="102.0" />
        <vehicle id="down_216" type="car"  route="down" depart="102.0" />
        <vehicle id="right_217" type="car"  route="right" depart="102.5" />
        <vehicle id="down_218" type="car"  route="down" depart="102.5" />
        <vehicle id="right_219" type="car"  route="right" depart="103.0" />
        <vehicle id="left_220" type="car"  route="left" depart="103.0" />
        <vehicle id="left_221" type="car"  route="left" depart="103.5" />
        <vehicle id="left_222" type="car"  route="left" depart="104.5" />
        <vehicle id="right_223" type="car"  route="right" depart="105.0" />
        <vehicle id="right_224" type="car"  route="right" depart="105.5" />
        <vehicle id="up_225" type="car"  route="up" depart="105.5" />
        <vehicle id="right_226" type="car"  route="right" depart="106.0" />
        <vehicle id="down_227" type="car"  route="down" depart="106.0" />
        <vehicle id="right_228" type="car"  route="right" depart="106.5" />
        <vehicle id="down_229" type="car"  route="down" depart="107.0" />
        <vehicle id="down_230" type="car"  route="down" depart="107.5" />
        <vehicle id="down_231" type="car"  route="down" depart="108.0" />
        <vehicle id="up_232" type="car"  route="up" depart="109.0" />
        <vehicle id="right_233" type="car"  route="right" depart="109.5" />
        <vehicle id="up_234" type="car"  route="up" depart="109.5" />
        <vehicle id="left_235" type="car"  route="left" depart="110.0" />
        <vehicle id="down_236" type="car"  route="down" depart="111.5" />
        <vehicle id="right_237" type="car"  route="right" depart="112.0" />
        <vehicle id="down_238" type="car"  route="down" depart="112.0" />
        <vehicle id="right_239" type="car"  route="right" depart="112.5" />
        <vehicle id="right_240" type="car"  route="right" depart="113.0" />
        <vehicle id="left_241" type="car"  route="left" depart="113.5" />
        <vehicle id="up_242" type="car"  route="up" depart="113.5" />
        <vehicle id="up_243" type="car"  route="up" depart="114.5" />
        <vehicle id="right_244" type="car"  route="right" depart="115.0" />
        <vehicle id="left_245" type="car"  route="left" depart="115.0" />
        <vehicle id="right_246" type="car"  route="right" depart="115.5" />
        <vehicle id="up_247" type="car"  route="up" depart="116.0" />
        <vehicle id="left_248" type="car"  route="left" depart="116.5" />
        <vehicle id="up_249" type="car"  route="up" depart="116.5" />
        <vehicle id="right_250" type="car"  route="right" depart="117.0" />
        <vehicle id="up_251" type="car"  route="up" depart="118.5" />
        <vehicle id="right_252" type="car"  route="right" depart="119.5" />
        <vehicle id="down_253" type="car"  route="down" depart="119.5" />
        <vehicle id="left_254" type="car"  route="left" depart="121.0" />
        <vehicle id="right_255" type="car"  route="right" depart="122.0" />
        <vehicle id="up_256" type="car"  route="up" depart="122.0" />
        <vehicle id="down_257" type="car"  route="down" depart="122.0" />
        <vehicle id="left_258" type="car"  route="left" depart="122.5" />
        <vehicle id="up_259" type="car"  route="up" depart="122.5" />
        <vehicle id="down_260" type="car"  route="down" depart="123.0" />
        <vehicle id="left_261" type="car"  route="left" depart="124.0" />
        <vehicle id="left_262" type="car"  route="left" depart="124.5" />
        <vehicle id="right_263" type="car"  route="right" depart="125.5" />
        <vehicle id="right_264" type="car"  route="right" depart="126.5" />
        <vehicle id="left_265" type="car"  route="left" depart="126.5" />
        <vehicle id="left_266" type="car"  route="left" depart="127.0" />
        <vehicle id="right_267" type="car"  route="right" depart="127.5" />
        <vehicle id="right_268" type="car"  route="right" depart="128.5" />
        <vehicle id="right_269" type="car"  route="right" depart="129.0" />
        <vehicle id="right_270" type="car"  route="right" depart="129.5" />
        <vehicle id="down_271" type="car"  route="down" depart="130.0" />
        <vehicle id="left_272" type="car"  route="left" depart="131.0" />
        <vehicle id="right_273" type="car"  route="right" depart="131.5" />
        <vehicle id="down_274" type="car"  route="down" depart="131.5" />
        <vehicle id="right_275" type="car"  route="right" depart="132.0" />
        <vehicle id="up_276" type="car"  route="up" depart="132.0" />
        <vehicle id="right_277" type="car"  route="right" depart="132.5" />
        <vehicle id="down_278" type="car"  route="down" depart="132.5" />
        <vehicle id="left_279" type="car"  route="left" depart="133.0" />
        <vehicle id="up_280" type="car"  route="up" depart="133.5" />
        <vehicle id="down_281" type="car"  route="down" depart="133.5" />
        <vehicle id="right_282" type="car"  route="right" depart="134.0" />
        <vehicle id="right_283" type="car"  route="right" depart="134.5" />
        <vehicle id="down_284" type="car"  route="down" depart="134.5" />
        <vehicle id="right_285" type="car"  route="right" depart="135.5" />
        <vehicle id="left_286" type="car"  route="left" depart="135.5" />
        <vehicle id="right_287" type="car"  route="right" depart="136.0" />
        <vehicle id="right_288" type="car"  route="right" depart="136.5" />
        <vehicle id="right_289" type="car"  route="right" depart="138.0" />
        <vehicle id="left_290" type="car"  route="left" depart="138.5" />
        <vehicle id="right_291" type="car"  route="right" depart="139.0" />
        <vehicle id="up_292" type="car"  route="up" depart="140.5" />
        <vehicle id="up_293" type="car"  route="up" depart="141.5" />
        <vehicle id="right_294" type="car"  route="right" depart="142.5" />
        <vehicle id="right_295" type="car"  route="right" depart="143.0" />
        <vehicle id="right_296" type="car"  route="right" depart="143.5" />
        <vehicle id="down_297" type="car"  route="down" depart="143.5" />
        <vehicle id="left_298" type="car"  route="left" depart="144.5" />
        <vehicle id="up_299" type="car"  route="up" depart="144.5" />
        <vehicle id="down_300" type="car"  route="down" depart="144.5" />
        <vehicle id="right_301" type="car"  route="right" depart="145.0" />
        <vehicle id="up_302" type="car"  route="up" depart="145.0" />
        <vehicle id="up_303" type="car"  route="up" depart="145.5" />
        <vehicle id="up_304" type="car"  route="up" depart="146.0" />
        <vehicle id="down_305" type="car"  route="down" depart="146.0" />
        <vehicle id="right_306" type="car"  route="right" depart="146.5" />
        <vehicle id="left_307" type="car"  route="left" depart="146.5" />
        <vehicle id="up_308" type="car"  route="up" depart="147.0" />
        <vehicle id="right_309" type="car"  route="right" depart="147.5" />
        <vehicle id="right_310" type="car"  route="right" depart="148.5" />
        <vehicle id="up_311" type="car"  route="up" depart="149.0" />
        <vehicle id="up_312" type="car"  route="up" depart="149.5" />
        <vehicle id="right_313" type="car"  route="right" depart="150.0" />
        <vehicle id="right_314" type="car"  route="right" depart="151.0" />
        <vehicle id="down_315" type="car"  route="down" depart="151.0" />
        <vehicle id="right_316" type="car"  route="right" depart="151.5" />
        <vehicle id="left_317" type="car"  route="left" depart="152.0" />
        <vehicle id="left_318" type="car"  route="left" depart="152.5" />
        <vehicle id="up_319" type="car"  route="up" depart="153.0" />
        <vehicle id="down_320" type="car"  route="down" depart="153.0" />
        <vehicle id="right_321" type="car"  route="right" depart="154.0" />
        <vehicle id="left_322" type="car"  route="left" depart="154.0" />
        <vehicle id="down_323" type="car"  route="down" depart="154.0" />
        <vehicle id="right_324" type="car"  route="right" depart="154.5" />
        <vehicle id="left_325" type="car"  route="left" depart="155.5" />
        <vehicle id="right_326" type="car"  route="right" depart="156.0" />
        <vehicle id="up_327" type="car"  route="up" depart="156.0" />
        <vehicle id="left_328" type="car"  route="left" depart="157.5" />
        <vehicle id="up_329" type="car"  route="up" depart="157.5" />
        <vehicle id="right_330" type="car"  route="right" depart="158.0" />
        <vehicle id="left_331" type="car"  route="left" depart="158.0" />
        <vehicle id="up_332" type="car"  route="up" depart="158.0" />
        <vehicle id="up_333" type="car"  route="up" depart="158.5" />
        <vehicle id="right_334" type="car"  route="right" depart="159.0" />
        <vehicle id="left_335" type="car"  route="left" depart="159.0" />
        <vehicle id="right_336" type="car"  route="right" depart="159.5" />
        <vehicle id="down_337" type="car"  route="down" depart="159.5" />
        <vehicle id="right_338" type="car"  route="right" depart="160.0" />
        <vehicle id="right_339" type="car"  route="right" depart="160.5" />
        <vehicle id="right_340" type="car"  route="right" depart="161.0" />
        <vehicle id="up_341" type="car"  route="up" depart="161.5" />
        <vehicle id="left_342" type="car"  route="left" depart="162.0" />
        <vehicle id="up_343" type="car"  route="up" depart="162.0" />
        <vehicle id="right_344" type="car"  route="right" depart="162.5" />
        <vehicle id="down_345" type="car"  route="down" depart="162.5" />
        <vehicle id="up_346" type="car"  route="up" depart="163.5" />
        <vehicle id="down_347" type="car"  route="down" depart="163.5" />
        <vehicle id="up_348" type="car"  route="up" depart="164.0" />
        <vehicle id="down_349" type="car"  route="down" depart="164.0" />
        <vehicle id="right_350" type="car"  route="right" depart="164.5" />
        <vehicle id="left_351" type="car"  route="left" depart="166.0" />
        <vehicle id="down_352" type="car"  route="down" depart="167.0" />
        <vehicle id="up_353" type="car"  route="up" depart="167.5" />
        <vehicle id="right_354" type="car"  route="right" depart="168.5" />
        <vehicle id="right_355" type="car"  route="right" depart="169.0" />
        <vehicle id="right_356" type="car"  route="right" depart="169.5" />
        <vehicle id="right_357" type="car"  route="right" depart="170.5" />
        <vehicle id="up_358" type="car"  route="up" depart="171.5" />
        <vehicle id="up_359" type="car"  route="up" depart="172.0" />
        <vehicle id="up_360" type="car"  route="up" depart="173.0" />
        <vehicle id="right_361" type="car"  route="right" depart="173.5" />
        <vehicle id="up_362" type="car"  route="up" depart="173.5" />
        <vehicle id="down_363" type="car"  route="down" depart="173.5" />
        <vehicle id="up_364" type="car"  route="up" depart="174.0" />
        <vehicle id="down_365" type="car"  route="down" depart="174.0" />
        <vehicle id="left_366" type="car"  route="left" depart="175.0" />
        <vehicle id="up_367" type="car"  route="up" depart="175.0" />
        <vehicle id="right_368" type="car"  route="right" depart="176.5" />
        <vehicle id="right_369" type="car"  route="right" depart="177.0" />
        <vehicle id="left_370" type="car"  route="left" depart="177.0" />
        <vehicle id="right_371" type="car"  route="right" depart="178.0" />
        <vehicle id="down_372" type="car"  route="down" depart="178.0" />
        <vehicle id="up_373" type="car"  route="up" depart="178.5" />
        <vehicle id="left_374" type="car"  route="left" depart="179.0" />
        <vehicle id="right_375" type="car"  route="right" depart="179.5" />
        <vehicle id="down_376" type="car"  route="down" depart="179.5" />
        <vehicle id="up_377" type="car"  route="up" depart="180.0" />
        <vehicle id="up_378" type="car"  route="up" depart="180.5" />
        <vehicle id="right_379" type="car"  route="right" depart="181.0" />
        <vehicle id="right_380" type="car"  route="right" depart="182.0" />
        <vehicle id="left_381" type="car"  route="left" depart="182.5" />
        <vehicle id="right_382" type="car"  route="right" depart="183.0" />
        <vehicle id="right_383" type="car"  route="right" depart="183.5" />
        <vehicle id="left_384" type="car"  route="left" depart="183.5" />
        <vehicle id="right_385" type="car"  route="right" depart="184.0" />
        <vehicle id="right_386" type="car"  route="right" depart="184.5" />
        <vehicle id="up_387" type="car"  route="up" depart="184.5" />
        <vehicle id="right_388" type="car"  route="right" depart="185.0" />
        <vehicle id="down_389" type="car"  route="down" depart="186.0" />
        <vehicle id="right_390" type="car"  route="right" depart="186.5" />
        <vehicle id="left_391" type="car"  route="left" depart="186.5" />
        <vehicle id="down_392" type="car"  route="down" depart="186.5" />
        <vehicle id="down_393" type="car"  route="down" depart="188.0" />
        <vehicle id="left_394" type="car"  route="left" depart="188.5" />
        <vehicle id="up_395" type="car"  route="up" depart="188.5" />
        <vehicle id="right_396" type="car"  route="right" depart="189.0" />
        <vehicle id="right_397" type="car"  route="right" depart="189.5" />
        <vehicle id="up_398" type="car"  route="up" depart="189.5" />
        <vehicle id="right_399" type="car"  route="right" depart="190.0" />