<routes>
        <vType id="typeWE" accel="0.8" decel="4.5" sigma="0.5" length="5" minGap="2.5" maxSpeed="100" guiShape="passenger"/>
        <vType id="typeNS" accel="0.8" decel="4.5" sigma="0.5" length="5" minGap="3" maxSpeed="100" guiShape="bus"/>

        <route id="right" edges="51o 1i 2o 52i" />
        <route id="right_down" edges="51o 1i 3o 53i" />
        <route id="left" edges="52o 2i 1o 51i" />
        <route id="left_up" edges="52o 2i 4o 54i" />

        <route id="up" edges="53o 3i 4o 54i" />
        <route id="up_right" edges="53o 3i 2o 52i" />
        <route id="down_left" edges="54o 4i 1o 51i" />
        <route id="down" edges="54o 4i 3o 53i" />

        <vehicle depart="0" id="agent" route="left_up" type="typeWE" color="1,0,0"/>
        <vehicle depart="0" id="LH" route="up" type="typeNS" />
        <vehicle depart="0" id="D1" route="left_up" type="typeNS" color="1,0,0"/>
        <vehicle depart="0" id="D2" route="down" type="typeWE" />
</routes>