<?xml version="1.0" encoding="UTF-8"?>

<!-- generated on 11 ماي, 2021 11:21:34 ص by Eclipse SUMO netedit Version v1_8_0+0922-7b2bbb9a60
<configuration xmlns:xsi="http://www.w3.org/2001/XMLSchema-instance" xsi:noNamespaceSchemaLocation="http://sumo.dlr.de/xsd/netconvertConfiguration.xsd">

    <input>
        <sumo-net-file value="/home/mg/GP/Implementation/version%201.0%201/data/cross.net.xml"/>
    </input>

    <output>
        <output-file value="/home/mg/GP/Implementation/version%201.0%201/data/cross.net.xml"/>
    </output>

    <processing>
        <geometry.min-radius.fix.railways value="false"/>
        <geometry.max-grade.fix value="false"/>
        <offset.disable-normalization value="true"/>
        <lefthand value="false"/>
    </processing>

    <junctions>
        <no-turnarounds value="true"/>
        <junctions.corner-detail value="0"/>
        <junctions.limit-turn-speed value="-1"/>
        <rectangular-lane-cut value="false"/>
    </junctions>

    <pedestrian>
        <walkingareas value="false"/>
    </pedestrian>

    <report>
        <aggregate-warnings value="5"/>
    </report>

</configuration>
-->

<net version="1.9" xmlns:xsi="http://www.w3.org/2001/XMLSchema-instance" xsi:noNamespaceSchemaLocation="http://sumo.dlr.de/xsd/net_file.xsd">

    <location netOffset="510.00,510.00" convBoundary="0.00,0.00,1020.00,1020.00" origBoundary="-510.00,-510.00,510.00,510.00" projParameter="!"/>

    <edge id=":0_0" function="internal">
        <lane id=":0_0_0" index="0" speed="15.28" length="9.03" shape="502.00,523.60 501.65,521.15 500.60,519.40 498.85,518.35 496.40,518.00"/>
    </edge>
    <edge id=":0_1" function="internal">
        <lane id=":0_1_0" index="0" speed="15.28" length="27.20" shape="502.00,523.60 502.00,496.40"/>
        <lane id=":0_1_1" index="1" speed="15.28" length="27.20" shape="508.40,523.60 508.40,496.40"/>
    </edge>
    <edge id=":0_3" function="internal">
        <lane id=":0_3_0" index="0" speed="15.28" length="7.98" shape="508.40,523.60 509.35,516.95 510.00,515.87"/>
    </edge>
    <edge id=":0_16" function="internal">
        <lane id=":0_16_0" index="0" speed="15.28" length="16.53" shape="510.00,515.87 512.20,512.20 516.95,509.35 523.60,508.40"/>
    </edge>
    <edge id=":0_4" function="internal">
        <lane id=":0_4_0" index="0" speed="15.28" length="9.03" shape="523.60,518.00 521.15,518.35 519.40,519.40 518.35,521.15 518.00,523.60"/>
    </edge>
    <edge id=":0_5" function="internal">
        <lane id=":0_5_0" index="0" speed="15.28" length="27.20" shape="523.60,518.00 496.40,518.00"/>
        <lane id=":0_5_1" index="1" speed="15.28" length="27.20" shape="523.60,511.60 496.40,511.60"/>
    </edge>
    <edge id=":0_7" function="internal">
        <lane id=":0_7_0" index="0" speed="15.28" length="24.51" shape="523.60,511.60 516.95,510.65 512.20,507.80 509.35,503.05 508.40,496.40"/>
    </edge>
    <edge id=":0_8" function="internal">
        <lane id=":0_8_0" index="0" speed="15.28" length="9.03" shape="518.00,496.40 518.35,498.85 519.40,500.60 521.15,501.65 523.60,502.00"/>
    </edge>
    <edge id=":0_9" function="internal">
        <lane id=":0_9_0" index="0" speed="15.28" length="27.20" shape="518.00,496.40 518.00,523.60"/>
        <lane id=":0_9_1" index="1" speed="15.28" length="27.20" shape="511.60,496.40 511.60,523.60"/>
    </edge>
    <edge id=":0_11" function="internal">
        <lane id=":0_11_0" index="0" speed="15.28" length="7.98" shape="511.60,496.40 510.65,503.05 510.00,504.13"/>
    </edge>
    <edge id=":0_17" function="internal">
        <lane id=":0_17_0" index="0" speed="15.28" length="16.53" shape="510.00,504.13 507.80,507.80 503.05,510.65 496.40,511.60"/>
    </edge>
    <edge id=":0_12" function="internal">
        <lane id=":0_12_0" index="0" speed="15.28" length="9.03" shape="496.40,502.00 498.85,501.65 500.60,500.60 501.65,498.85 502.00,496.40"/>
    </edge>
    <edge id=":0_13" function="internal">
        <lane id=":0_13_0" index="0" speed="15.28" length="27.20" shape="496.40,502.00 523.60,502.00"/>
        <lane id=":0_13_1" index="1" speed="15.28" length="27.20" shape="496.40,508.40 523.60,508.40"/>
    </edge>
    <edge id=":0_15" function="internal">
        <lane id=":0_15_0" index="0" speed="15.28" length="24.51" shape="496.40,508.40 503.05,509.35 507.80,512.20 510.65,516.95 511.60,523.60"/>
    </edge>
    <edge id=":1_0" function="internal">
        <lane id=":1_0_0" index="0" speed="15.28" length="8.00" shape="14.00,511.60 6.00,511.60"/>
    </edge>
    <edge id=":1_1" function="internal">
        <lane id=":1_1_0" index="0" speed="15.28" length="2.34" shape="14.00,511.60 12.80,510.80 12.40,510.00"/>
    </edge>
    <edge id=":1_4" function="internal">
        <lane id=":1_4_0" index="0" speed="15.28" length="2.34" shape="12.40,510.00 12.80,509.20 14.00,508.40"/>
    </edge>
    <edge id=":1_2" function="internal">
        <lane id=":1_2_0" index="0" speed="15.28" length="8.00" shape="6.00,508.40 14.00,508.40"/>
    </edge>
    <edge id=":1_3" function="internal">
        <lane id=":1_3_0" index="0" speed="15.28" length="2.34" shape="6.00,508.40 7.20,509.20 7.60,510.00"/>
    </edge>
    <edge id=":1_5" function="internal">
        <lane id=":1_5_0" index="0" speed="15.28" length="2.34" shape="7.60,510.00 7.20,510.80 6.00,511.60"/>
    </edge>
    <edge id=":2_0" function="internal">
        <lane id=":2_0_0" index="0" speed="15.28" length="8.00" shape="1014.00,511.60 1006.00,511.60"/>
    </edge>
    <edge id=":2_1" function="internal">
        <lane id=":2_1_0" index="0" speed="15.28" length="2.34" shape="1014.00,511.60 1012.80,510.80 1012.40,510.00"/>
    </edge>
    <edge id=":2_4" function="internal">
        <lane id=":2_4_0" index="0" speed="15.28" length="2.34" shape="1012.40,510.00 1012.80,509.20 1014.00,508.40"/>
    </edge>
    <edge id=":2_2" function="internal">
        <lane id=":2_2_0" index="0" speed="15.28" length="8.00" shape="1006.00,508.40 1014.00,508.40"/>
    </edge>
    <edge id=":2_3" function="internal">
        <lane id=":2_3_0" index="0" speed="15.28" length="2.34" shape="1006.00,508.40 1007.20,509.20 1007.60,510.00"/>
    </edge>
    <edge id=":2_5" function="internal">
        <lane id=":2_5_0" index="0" speed="15.28" length="2.34" shape="1007.60,510.00 1007.20,510.80 1006.00,511.60"/>
    </edge>
    <edge id=":3_0" function="internal">
        <lane id=":3_0_0" index="0" speed="15.28" length="8.00" shape="508.40,14.00 508.40,6.00"/>
    </edge>
    <edge id=":3_1" function="internal">
        <lane id=":3_1_0" index="0" speed="15.28" length="2.34" shape="508.40,14.00 509.20,12.80 510.00,12.40"/>
    </edge>
    <edge id=":3_4" function="internal">
        <lane id=":3_4_0" index="0" speed="15.28" length="2.34" shape="510.00,12.40 510.80,12.80 511.60,14.00"/>
    </edge>
    <edge id=":3_2" function="internal">
        <lane id=":3_2_0" index="0" speed="15.28" length="8.00" shape="511.60,6.00 511.60,14.00"/>
    </edge>
    <edge id=":3_3" function="internal">
        <lane id=":3_3_0" index="0" speed="15.28" length="2.34" shape="511.60,6.00 510.80,7.20 510.00,7.60"/>
    </edge>
    <edge id=":3_5" function="internal">
        <lane id=":3_5_0" index="0" speed="15.28" length="2.34" shape="510.00,7.60 509.20,7.20 508.40,6.00"/>
    </edge>
    <edge id=":4_0" function="internal">
        <lane id=":4_0_0" index="0" speed="15.28" length="8.00" shape="508.40,1014.00 508.40,1006.00"/>
    </edge>
    <edge id=":4_1" function="internal">
        <lane id=":4_1_0" index="0" speed="15.28" length="2.34" shape="508.40,1014.00 509.20,1012.80 510.00,1012.40"/>
    </edge>
    <edge id=":4_4" function="internal">
        <lane id=":4_4_0" index="0" speed="15.28" length="2.34" shape="510.00,1012.40 510.80,1012.80 511.60,1014.00"/>
    </edge>
    <edge id=":4_2" function="internal">
        <lane id=":4_2_0" index="0" speed="15.28" length="8.00" shape="511.60,1006.00 511.60,1014.00"/>
    </edge>
    <edge id=":4_3" function="internal">
        <lane id=":4_3_0" index="0" speed="15.28" length="2.34" shape="511.60,1006.00 510.80,1007.20 510.00,1007.60"/>
    </edge>
    <edge id=":4_5" function="internal">
        <lane id=":4_5_0" index="0" speed="15.28" length="2.34" shape="510.00,1007.60 509.20,1007.20 508.40,1006.00"/>
    </edge>
    <edge id=":51_0" function="internal">
        <lane id=":51_0_0" index="0" speed="15.28" length="4.67" shape="0.00,511.60 -1.20,510.80 -1.60,510.00 -1.20,509.20 0.00,508.40"/>
    </edge>
    <edge id=":52_0" function="internal">
        <lane id=":52_0_0" index="0" speed="15.28" length="4.67" shape="1020.00,508.40 1021.20,509.20 1021.60,510.00 1021.20,510.80 1020.00,511.60"/>
    </edge>
    <edge id=":53_0" function="internal">
        <lane id=":53_0_0" index="0" speed="15.28" length="4.67" shape="508.40,0.00 509.20,-1.20 510.00,-1.60 510.80,-1.20 511.60,0.00"/>
    </edge>
    <edge id=":54_0" function="internal">
        <lane id=":54_0_0" index="0" speed="15.28" length="4.67" shape="511.60,1020.00 510.80,1021.20 510.00,1021.60 509.20,1021.20 508.40,1020.00"/>
    </edge>

    <edge id="1i" from="1" to="0" priority="78">
        <lane id="1i_0" index="0" speed="19.44" width="3.5" length="482.40" shape="14.00,502.00 496.40,502.00"/>
        <lane id="1i_1" index="1" speed="19.44" width="3.5" length="482.40" shape="14.00,505.20 496.40,505.20"/>
        <lane id="1i_2" index="2" speed="19.44" width="3.5" length="482.40" shape="14.00,508.40 496.40,508.40"/>
    </edge>
    <edge id="1o" from="0" to="1" priority="78">
        <lane id="1o_0" index="0" speed="11.11" width="3.5" length="482.40" shape="496.40,518.00 14.00,518.00"/>
        <lane id="1o_1" index="1" speed="11.11" width="3.5" length="482.40" shape="496.40,514.80 14.00,514.80"/>
        <lane id="1o_2" index="2" speed="11.11" width="3.5" length="482.40" shape="496.40,511.60 14.00,511.60"/>
    </edge>
    <edge id="2i" from="2" to="0" priority="78">
        <lane id="2i_0" index="0" speed="19.44" width="3.5" length="482.40" shape="1006.00,518.00 523.60,518.00"/>
        <lane id="2i_1" index="1" speed="19.44" width="3.5" length="482.40" shape="1006.00,514.80 523.60,514.80"/>
        <lane id="2i_2" index="2" speed="19.44" width="3.5" length="482.40" shape="1006.00,511.60 523.60,511.60"/>
    </edge>
    <edge id="2o" from="0" to="2" priority="78">
        <lane id="2o_0" index="0" speed="11.11" width="3.5" length="482.40" shape="523.60,502.00 1006.00,502.00"/>
        <lane id="2o_1" index="1" speed="11.11" width="3.5" length="482.40" shape="523.60,505.20 1006.00,505.20"/>
        <lane id="2o_2" index="2" speed="11.11" width="3.5" length="482.40" shape="523.60,508.40 1006.00,508.40"/>
    </edge>
    <edge id="3i" from="3" to="0" priority="78">
        <lane id="3i_0" index="0" speed="19.44" width="3.5" length="482.40" shape="518.00,14.00 518.00,496.40"/>
        <lane id="3i_1" index="1" speed="19.44" width="3.5" length="482.40" shape="514.80,14.00 514.80,496.40"/>
        <lane id="3i_2" index="2" speed="19.44" width="3.5" length="482.40" shape="511.60,14.00 511.60,496.40"/>
    </edge>
    <edge id="3o" from="0" to="3" priority="78">
        <lane id="3o_0" index="0" speed="11.11" width="3.5" length="482.40" shape="502.00,496.40 502.00,14.00"/>
        <lane id="3o_1" index="1" speed="11.11" width="3.5" length="482.40" shape="505.20,496.40 505.20,14.00"/>
        <lane id="3o_2" index="2" speed="11.11" width="3.5" length="482.40" shape="508.40,496.40 508.40,14.00"/>
    </edge>
    <edge id="4i" from="4" to="0" priority="78">
        <lane id="4i_0" index="0" speed="19.44" width="3.5" length="482.40" shape="502.00,1006.00 502.00,523.60"/>
        <lane id="4i_1" index="1" speed="19.44" width="3.5" length="482.40" shape="505.20,1006.00 505.20,523.60"/>
        <lane id="4i_2" index="2" speed="19.44" width="3.5" length="482.40" shape="508.40,1006.00 508.40,523.60"/>
    </edge>
    <edge id="4o" from="0" to="4" priority="78">
        <lane id="4o_0" index="0" speed="11.11" width="3.5" length="482.40" shape="518.00,523.60 518.00,1006.00"/>
        <lane id="4o_1" index="1" speed="11.11" width="3.5" length="482.40" shape="514.80,523.60 514.80,1006.00"/>
        <lane id="4o_2" index="2" speed="11.11" width="3.5" length="482.40" shape="511.60,523.60 511.60,1006.00"/>
    </edge>
    <edge id="51i" from="1" to="51" priority="78">
        <lane id="51i_0" index="0" speed="19.44" length="6.00" shape="6.00,514.80 0.00,514.80"/>
        <lane id="51i_1" index="1" speed="19.44" length="6.00" shape="6.00,511.60 0.00,511.60"/>
    </edge>
    <edge id="51o" from="51" to="1" priority="78">
        <lane id="51o_0" index="0" speed="11.11" length="6.00" shape="0.00,505.20 6.00,505.20"/>
        <lane id="51o_1" index="1" speed="11.11" length="6.00" shape="0.00,508.40 6.00,508.40"/>
    </edge>
    <edge id="52i" from="2" to="52" priority="78">
        <lane id="52i_0" index="0" speed="19.44" length="6.00" shape="1014.00,505.20 1020.00,505.20"/>
        <lane id="52i_1" index="1" speed="19.44" length="6.00" shape="1014.00,508.40 1020.00,508.40"/>
    </edge>
    <edge id="52o" from="52" to="2" priority="78">
        <lane id="52o_0" index="0" speed="11.11" length="6.00" shape="1020.00,514.80 1014.00,514.80"/>
        <lane id="52o_1" index="1" speed="11.11" length="6.00" shape="1020.00,511.60 1014.00,511.60"/>
    </edge>
    <edge id="53i" from="3" to="53" priority="78">
        <lane id="53i_0" index="0" speed="19.44" length="6.00" shape="505.20,6.00 505.20,0.00"/>
        <lane id="53i_1" index="1" speed="19.44" length="6.00" shape="508.40,6.00 508.40,0.00"/>
    </edge>
    <edge id="53o" from="53" to="3" priority="78">
        <lane id="53o_0" index="0" speed="11.11" length="6.00" shape="514.80,0.00 514.80,6.00"/>
        <lane id="53o_1" index="1" speed="11.11" length="6.00" shape="511.60,0.00 511.60,6.00"/>
    </edge>
    <edge id="54i" from="4" to="54" priority="78">
        <lane id="54i_0" index="0" speed="19.44" length="6.00" shape="514.80,1014.00 514.80,1020.00"/>
        <lane id="54i_1" index="1" speed="19.44" length="6.00" shape="511.60,1014.00 511.60,1020.00"/>
    </edge>
    <edge id="54o" from="54" to="4" priority="78">
        <lane id="54o_0" index="0" speed="11.11" length="6.00" shape="505.20,1020.00 505.20,1014.00"/>
        <lane id="54o_1" index="1" speed="11.11" length="6.00" shape="508.40,1020.00 508.40,1014.00"/>
    </edge>

    <junction id="0" type="traffic_light" x="510.00" y="510.00" incLanes="4i_0 4i_1 4i_2 2i_0 2i_1 2i_2 3i_0 3i_1 3i_2 1i_0 1i_1 1i_2" intLanes=":0_0_0 :0_1_0 :0_1_1 :0_16_0 :0_4_0 :0_5_0 :0_5_1 :0_7_0 :0_8_0 :0_9_0 :0_9_1 :0_17_0 :0_12_0 :0_13_0 :0_13_1 :0_15_0" shape="500.40,523.60 519.60,523.60 523.60,519.60 523.60,500.40 519.60,496.40 500.40,496.40 496.40,500.40 496.40,519.60">
        <request index="0"  response="0000000000000000" foes="0000000001100000" cont="0"/>
        <request index="1"  response="0000000000000000" foes="1111100011100000" cont="0"/>
        <request index="2"  response="0000000000000000" foes="1111100011100000" cont="0"/>
        <request index="3"  response="0000011000000000" foes="1110011011100000" cont="1"/>
        <request index="4"  response="0000011000000000" foes="0000011000000000" cont="0"/>
        <request index="5"  response="0000111000001111" foes="1000111000001111" cont="0"/>
        <request index="6"  response="0000111000001111" foes="1000111000001111" cont="0"/>
        <request index="7"  response="0110111000001110" foes="0110111000001110" cont="0"/>
        <request index="8"  response="0000000000000000" foes="0110000000000000" cont="0"/>
        <request index="9"  response="0000000000000000" foes="1110000011111000" cont="0"/>
        <request index="10" response="0000000000000000" foes="1110000011111000" cont="0"/>
        <request index="11" response="0000000000000110" foes="1110000011100110" cont="1"/>
        <request index="12" response="0000000000000110" foes="0000000000000110" cont="0"/>
        <request index="13" response="0000111100001110" foes="0000111110001110" cont="0"/>
        <request index="14" response="0000111100001110" foes="0000111110001110" cont="0"/>
        <request index="15" response="0000111001101110" foes="0000111001101110" cont="0"/>
    </junction>

    <junction id="1" type="priority" x="10.00" y="510.00" incLanes="1o_0 1o_1 1o_2 51o_0 51o_1" intLanes=":1_0_0 :1_4_0 :1_2_0 :1_5_0" shape="14.00,519.60 14.00,500.40 6.00,503.60 6.00,516.40">
        <request index="0" response="0000" foes="1000" cont="0"/>
        <request index="1" response="0100" foes="0100" cont="1"/>
        <request index="2" response="0000" foes="0010" cont="0"/>
        <request index="3" response="0001" foes="0001" cont="1"/>
    </junction>
    <junction id="2" type="priority" x="1010.00" y="510.00" incLanes="52o_0 52o_1 2o_0 2o_1 2o_2" intLanes=":2_0_0 :2_4_0 :2_2_0 :2_5_0" shape="1014.00,516.40 1014.00,503.60 1006.00,500.40 1006.00,519.60">
        <request index="0" response="0000" foes="1000" cont="0"/>
        <request index="1" response="0100" foes="0100" cont="1"/>
        <request index="2" response="0000" foes="0010" cont="0"/>
        <request index="3" response="0001" foes="0001" cont="1"/>
    </junction>
    <junction id="3" type="priority" x="510.00" y="10.00" incLanes="3o_0 3o_1 3o_2 53o_0 53o_1" intLanes=":3_0_0 :3_4_0 :3_2_0 :3_5_0" shape="500.40,14.00 519.60,14.00 516.40,6.00 503.60,6.00">
        <request index="0" response="0000" foes="1000" cont="0"/>
        <request index="1" response="0100" foes="0100" cont="1"/>
        <request index="2" response="0000" foes="0010" cont="0"/>
        <request index="3" response="0001" foes="0001" cont="1"/>
    </junction>
    <junction id="4" type="priority" x="510.00" y="1010.00" incLanes="54o_0 54o_1 4o_0 4o_1 4o_2" intLanes=":4_0_0 :4_4_0 :4_2_0 :4_5_0" shape="503.60,1014.00 516.40,1014.00 519.60,1006.00 500.40,1006.00">
        <request index="0" response="0000" foes="1000" cont="0"/>
        <request index="1" response="0100" foes="0100" cont="1"/>
        <request index="2" response="0000" foes="0010" cont="0"/>
        <request index="3" response="0001" foes="0001" cont="1"/>
    </junction>
    <junction id="51" type="priority" x="0.00" y="510.00" incLanes="51i_0 51i_1" intLanes=":51_0_0" shape="0.00,510.00 0.00,516.40 0.00,510.00">
        <request index="0" response="0" foes="0" cont="0"/>
    </junction>
    <junction id="52" type="priority" x="1020.00" y="510.00" incLanes="52i_0 52i_1" intLanes=":52_0_0" shape="1020.00,510.00 1020.00,503.60 1020.00,510.00">
        <request index="0" response="0" foes="0" cont="0"/>
    </junction>
    <junction id="53" type="priority" x="510.00" y="0.00" incLanes="53i_0 53i_1" intLanes=":53_0_0" shape="510.00,0.00 503.60,0.00 510.00,0.00">
        <request index="0" response="0" foes="0" cont="0"/>
    </junction>
    <junction id="54" type="priority" x="510.00" y="1020.00" incLanes="54i_0 54i_1" intLanes=":54_0_0" shape="510.00,1020.00 516.40,1020.00 510.00,1020.00">
        <request index="0" response="0" foes="0" cont="0"/>
    </junction>

    <junction id=":0_16_0" type="internal" x="510.00" y="515.87" incLanes=":0_3_0 3i_0 3i_2" intLanes=":0_5_0 :0_5_1 :0_7_0 :0_8_0 :0_9_0 :0_9_1 :0_13_0 :0_13_1 :0_15_0"/>
    <junction id=":0_17_0" type="internal" x="510.00" y="504.13" incLanes=":0_11_0 4i_0 4i_2" intLanes=":0_0_0 :0_1_0 :0_1_1 :0_5_0 :0_5_1 :0_7_0 :0_13_0 :0_13_1 :0_15_0"/>
    <junction id=":1_4_0" type="internal" x="12.40" y="510.00" incLanes=":1_1_0 51o_1" intLanes=":1_2_0"/>
    <junction id=":1_5_0" type="internal" x="7.60" y="510.00" incLanes=":1_3_0 1o_2" intLanes=":1_0_0"/>
    <junction id=":2_4_0" type="internal" x="1012.40" y="510.00" incLanes=":2_1_0 2o_2" intLanes=":2_2_0"/>
    <junction id=":2_5_0" type="internal" x="1007.60" y="510.00" incLanes=":2_3_0 52o_1" intLanes=":2_0_0"/>
    <junction id=":3_4_0" type="internal" x="510.00" y="12.40" incLanes=":3_1_0 53o_1" intLanes=":3_2_0"/>
    <junction id=":3_5_0" type="internal" x="510.00" y="7.60" incLanes=":3_3_0 3o_2" intLanes=":3_0_0"/>
    <junction id=":4_4_0" type="internal" x="510.00" y="1012.40" incLanes=":4_1_0 4o_2" intLanes=":4_2_0"/>
    <junction id=":4_5_0" type="internal" x="510.00" y="1007.60" incLanes=":4_3_0 54o_1" intLanes=":4_0_0"/>

    <connection from="1i" to="3o" fromLane="0" toLane="0" uncontrolled="1" via=":0_12_0" dir="r" state="m"/>
    <connection from="1i" to="2o" fromLane="0" toLane="0" uncontrolled="1" via=":0_13_0" dir="s" state="m"/>
    <connection from="1i" to="2o" fromLane="2" toLane="2" uncontrolled="1" via=":0_13_1" dir="s" state="m"/>
    <connection from="1i" to="4o" fromLane="2" toLane="2" uncontrolled="1" via=":0_15_0" dir="l" state="m"/>
    <connection from="1o" to="51i" fromLane="2" toLane="1" via=":1_0_0" dir="s" state="M"/>
    <connection from="1o" to="1i" fromLane="2" toLane="2" via=":1_1_0" dir="t" state="m"/>
    <connection from="2i" to="4o" fromLane="0" toLane="0" uncontrolled="1" via=":0_4_0" dir="r" state="m"/>
    <connection from="2i" to="1o" fromLane="0" toLane="0" uncontrolled="1" via=":0_5_0" dir="s" state="m"/>
    <connection from="2i" to="1o" fromLane="2" toLane="2" uncontrolled="1" via=":0_5_1" dir="s" state="m"/>
    <connection from="2i" to="3o" fromLane="2" toLane="2" uncontrolled="1" via=":0_7_0" dir="l" state="m"/>
    <connection from="2o" to="52i" fromLane="2" toLane="1" via=":2_2_0" dir="s" state="M"/>
    <connection from="2o" to="2i" fromLane="2" toLane="2" via=":2_3_0" dir="t" state="m"/>
    <connection from="3i" to="2o" fromLane="0" toLane="0" uncontrolled="1" via=":0_8_0" dir="r" state="M"/>
    <connection from="3i" to="4o" fromLane="0" toLane="0" uncontrolled="1" via=":0_9_0" dir="s" state="M"/>
    <connection from="3i" to="4o" fromLane="2" toLane="2" uncontrolled="1" via=":0_9_1" dir="s" state="M"/>
    <connection from="3i" to="1o" fromLane="2" toLane="2" uncontrolled="1" via=":0_11_0" dir="l" state="m"/>
    <connection from="3o" to="53i" fromLane="2" toLane="1" via=":3_0_0" dir="s" state="M"/>
    <connection from="3o" to="3i" fromLane="2" toLane="2" via=":3_1_0" dir="t" state="m"/>
    <connection from="4i" to="1o" fromLane="0" toLane="0" uncontrolled="1" via=":0_0_0" dir="r" state="M"/>
    <connection from="4i" to="3o" fromLane="0" toLane="0" uncontrolled="1" via=":0_1_0" dir="s" state="M"/>
    <connection from="4i" to="3o" fromLane="2" toLane="2" uncontrolled="1" via=":0_1_1" dir="s" state="M"/>
    <connection from="4i" to="2o" fromLane="2" toLane="2" uncontrolled="1" via=":0_3_0" dir="l" state="m"/>
    <connection from="4o" to="54i" fromLane="2" toLane="1" via=":4_2_0" dir="s" state="M"/>
    <connection from="4o" to="4i" fromLane="2" toLane="2" via=":4_3_0" dir="t" state="m"/>
    <connection from="51i" to="51o" fromLane="1" toLane="1" via=":51_0_0" dir="t" state="M"/>
    <connection from="51o" to="1i" fromLane="1" toLane="2" via=":1_2_0" dir="s" state="M"/>
    <connection from="51o" to="51i" fromLane="1" toLane="1" via=":1_3_0" dir="t" state="m"/>
    <connection from="52i" to="52o" fromLane="1" toLane="1" via=":52_0_0" dir="t" state="M"/>
    <connection from="52o" to="2i" fromLane="1" toLane="2" via=":2_0_0" dir="s" state="M"/>
    <connection from="52o" to="52i" fromLane="1" toLane="1" via=":2_1_0" dir="t" state="m"/>
    <connection from="53i" to="53o" fromLane="1" toLane="1" via=":53_0_0" dir="t" state="M"/>
    <connection from="53o" to="3i" fromLane="1" toLane="2" via=":3_2_0" dir="s" state="M"/>
    <connection from="53o" to="53i" fromLane="1" toLane="1" via=":3_3_0" dir="t" state="m"/>
    <connection from="54i" to="54o" fromLane="1" toLane="1" via=":54_0_0" dir="t" state="M"/>
    <connection from="54o" to="4i" fromLane="1" toLane="2" via=":4_0_0" dir="s" state="M"/>
    <connection from="54o" to="54i" fromLane="1" toLane="1" via=":4_1_0" dir="t" state="m"/>

    <connection from=":0_0" to="1o" fromLane="0" toLane="0" dir="r" state="M"/>
    <connection from=":0_1" to="3o" fromLane="0" toLane="0" dir="s" state="M"/>
    <connection from=":0_1" to="3o" fromLane="1" toLane="2" dir="s" state="M"/>
    <connection from=":0_3" to="2o" fromLane="0" toLane="2" via=":0_16_0" dir="l" state="m"/>
    <connection from=":0_16" to="2o" fromLane="0" toLane="2" dir="l" state="M"/>
    <connection from=":0_4" to="4o" fromLane="0" toLane="0" dir="r" state="M"/>
    <connection from=":0_5" to="1o" fromLane="0" toLane="0" dir="s" state="M"/>
    <connection from=":0_5" to="1o" fromLane="1" toLane="2" dir="s" state="M"/>
    <connection from=":0_7" to="3o" fromLane="0" toLane="2" dir="l" state="M"/>
    <connection from=":0_8" to="2o" fromLane="0" toLane="0" dir="r" state="M"/>
    <connection from=":0_9" to="4o" fromLane="0" toLane="0" dir="s" state="M"/>
    <connection from=":0_9" to="4o" fromLane="1" toLane="2" dir="s" state="M"/>
    <connection from=":0_11" to="1o" fromLane="0" toLane="2" via=":0_17_0" dir="l" state="m"/>
    <connection from=":0_17" to="1o" fromLane="0" toLane="2" dir="l" state="M"/>
    <connection from=":0_12" to="3o" fromLane="0" toLane="0" dir="r" state="M"/>
    <connection from=":0_13" to="2o" fromLane="0" toLane="0" dir="s" state="M"/>
    <connection from=":0_13" to="2o" fromLane="1" toLane="2" dir="s" state="M"/>
    <connection from=":0_15" to="4o" fromLane="0" toLane="2" dir="l" state="M"/>
    <connection from=":1_0" to="51i" fromLane="0" toLane="1" dir="s" state="M"/>
    <connection from=":1_1" to="1i" fromLane="0" toLane="2" via=":1_4_0" dir="t" state="m"/>
    <connection from=":1_4" to="1i" fromLane="0" toLane="2" dir="t" state="M"/>
    <connection from=":1_2" to="1i" fromLane="0" toLane="2" dir="s" state="M"/>
    <connection from=":1_3" to="51i" fromLane="0" toLane="1" via=":1_5_0" dir="t" state="m"/>
    <connection from=":1_5" to="51i" fromLane="0" toLane="1" dir="t" state="M"/>
    <connection from=":2_0" to="2i" fromLane="0" toLane="2" dir="s" state="M"/>
    <connection from=":2_1" to="52i" fromLane="0" toLane="1" via=":2_4_0" dir="t" state="m"/>
    <connection from=":2_4" to="52i" fromLane="0" toLane="1" dir="t" state="M"/>
    <connection from=":2_2" to="52i" fromLane="0" toLane="1" dir="s" state="M"/>
    <connection from=":2_3" to="2i" fromLane="0" toLane="2" via=":2_5_0" dir="t" state="m"/>
    <connection from=":2_5" to="2i" fromLane="0" toLane="2" dir="t" state="M"/>
    <connection from=":3_0" to="53i" fromLane="0" toLane="1" dir="s" state="M"/>
    <connection from=":3_1" to="3i" fromLane="0" toLane="2" via=":3_4_0" dir="t" state="m"/>
    <connection from=":3_4" to="3i" fromLane="0" toLane="2" dir="t" state="M"/>
    <connection from=":3_2" to="3i" fromLane="0" toLane="2" dir="s" state="M"/>
    <connection from=":3_3" to="53i" fromLane="0" toLane="1" via=":3_5_0" dir="t" state="m"/>
    <connection from=":3_5" to="53i" fromLane="0" toLane="1" dir="t" state="M"/>
    <connection from=":4_0" to="4i" fromLane="0" toLane="2" dir="s" state="M"/>
    <connection from=":4_1" to="54i" fromLane="0" toLane="1" via=":4_4_0" dir="t" state="m"/>
    <connection from=":4_4" to="54i" fromLane="0" toLane="1" dir="t" state="M"/>
    <connection from=":4_2" to="54i" fromLane="0" toLane="1" dir="s" state="M"/>
    <connection from=":4_3" to="4i" fromLane="0" toLane="2" via=":4_5_0" dir="t" state="m"/>
    <connection from=":4_5" to="4i" fromLane="0" toLane="2" dir="t" state="M"/>
    <connection from=":51_0" to="51o" fromLane="0" toLane="1" dir="t" state="M"/>
    <connection from=":52_0" to="52o" fromLane="0" toLane="1" dir="t" state="M"/>
    <connection from=":53_0" to="53o" fromLane="0" toLane="1" dir="t" state="M"/>
    <connection from=":54_0" to="54o" fromLane="0" toLane="1" dir="t" state="M"/>

</net>
