<routes>
        <vType id="car" accel="3.5" decel="3.5" sigma="0.5" width="1.8" length="4.5" minGap="1" maxSpeed="25.2" guiShape="passenger"/>

        <route id="right" edges="51o 1i 2o 52i" />
        <route id="right_down" edges="51o 1i 3o 53i" />
        <route id="right_up" edges="51o 1i 4o 54i" />
        <route id="left" edges="52o 2i 1o 51i" />
        <route id="left_down" edges="52o 2i 3o 53i" />
        <route id="left_up" edges="52o 2i 4o 54i" />

        <route id="up" edges="53o 3i 4o 54i" />
,        <route id="up_right" edges="53o 3i 2o 52i" />
        <route id="up_left" edges="53o 3i 1o 51i" />
        <route id="down_right" edges="54o 4i 2o 52i" />
        <route id="down_left" edges="54o 4i 1o 51i" />
        <route id="down" edges="54o 4i 3o 53i" />
        
        <vehicle id="up_right_0" type="car"  route="up_right" depart="3.0" />
        <vehicle id="up_1" type="car"  route="up" depart="12.5" />
        <vehicle id="right_up_2" type="car"  route="right_up" depart="15.0" />
        <vehicle id="left_3" type="car"  route="left" depart="20.0" />
        <vehicle id="down_4" type="car"  route="down" depart="33.5" />
        <vehicle id="right_up_5" type="car"  route="right_up" depart="35.5" />
        <vehicle id="left_6" type="car"  route="left" depart="69.5" />
        <vehicle id="up_right_7" type="car"  route="up_right" depart="80.0" />
        <vehicle id="up_left_8" type="car"  route="up_left" depart="93.5" />
        <vehicle id="down_9" type="car"  route="down" depart="130.0" />
        <vehicle id="left_10" type="car"  route="left" depart="144.0" />
        <vehicle id="up_left_11" type="car"  route="up_left" depart="157.5" />
        <vehicle id="up_left_12" type="car"  route="up_left" depart="159.5" />
        <vehicle id="left_up_13" type="car"  route="left_up" depart="184.5" />
        <vehicle id="right_down_14" type="car"  route="right_down" depart="194.0" />
        <vehicle id="up_15" type="car"  route="up" depart="197.0" />
        <vehicle id="left_down_16" type="car"  route="left_down" depart="230.0" />
        <vehicle id="left_up_17" type="car"  route="left_up" depart="236.0" />
        <vehicle id="up_left_18" type="car"  route="up_left" depart="237.0" />
        <vehicle id="down_left_19" type="car"  route="down_left" depart="238.5" />
        <vehicle id="left_down_20" type="car"  route="left_down" depart="241.5" />
        <vehicle id="left_21" type="car"  route="left" depart="250.5" />
        <vehicle id="right_up_22" type="car"  route="right_up" depart="253.5" />
        <vehicle id="right_down_23" type="car"  route="right_down" depart="261.0" />
        <vehicle id="left_up_24" type="car"  route="left_up" depart="261.5" />
        <vehicle id="left_down_25" type="car"  route="left_down" depart="267.5" />
        <vehicle id="up_26" type="car"  route="up" depart="287.5" />
        <vehicle id="left_down_27" type="car"  route="left_down" depart="293.0" />
        <vehicle id="up_28" type="car"  route="up" depart="301.5" />
        <vehicle id="left_up_29" type="car"  route="left_up" depart="310.5" />
        <vehicle id="down_30" type="car"  route="down" depart="323.0" />
        <vehicle id="up_right_31" type="car"  route="up_right" depart="329.0" />
        <vehicle id="left_up_32" type="car"  route="left_up" depart="346.5" />
        <vehicle id="left_33" type="car"  route="left" depart="347.5" />
        <vehicle id="right_down_34" type="car"  route="right_down" depart="351.5" />
        <vehicle id="left_up_35" type="car"  route="left_up" depart="385.5" />
        <vehicle id="up_36" type="car"  route="up" depart="395.5" />
        <vehicle id="up_37" type="car"  route="up" depart="396.0" />
        <vehicle id="right_38" type="car"  route="right" depart="406.0" />
        <vehicle id="left_39" type="car"  route="left" depart="417.0" />
        <vehicle id="up_right_40" type="car"  route="up_right" depart="419.5" />
        <vehicle id="left_down_41" type="car"  route="left_down" depart="442.0" />
        <vehicle id="up_left_42" type="car"  route="up_left" depart="443.0" />
        <vehicle id="up_43" type="car"  route="up" depart="451.5" />
        <vehicle id="up_44" type="car"  route="up" depart="468.0" />
        <vehicle id="up_right_45" type="car"  route="up_right" depart="487.5" />
        <vehicle id="left_down_46" type="car"  route="left_down" depart="505.5" />
        <vehicle id="up_left_47" type="car"  route="up_left" depart="509.5" />
        <vehicle id="right_48" type="car"  route="right" depart="520.5" />
        <vehicle id="right_up_49" type="car"  route="right_up" depart="522.0" />
        <vehicle id="up_right_50" type="car"  route="up_right" depart="523.0" />
        <vehicle id="left_51" type="car"  route="left" depart="525.0" />
        <vehicle id="down_right_52" type="car"  route="down_right" depart="537.5" />
        <vehicle id="left_53" type="car"  route="left" depart="543.0" />
        <vehicle id="down_right_54" type="car"  route="down_right" depart="547.0" />
        <vehicle id="right_down_55" type="car"  route="right_down" depart="550.5" />
        <vehicle id="up_56" type="car"  route="up" depart="553.5" />
        <vehicle id="down_left_57" type="car"  route="down_left" depart="556.0" />
        <vehicle id="down_58" type="car"  route="down" depart="562.5" />
        <vehicle id="left_59" type="car"  route="left" depart="577.5" />
        <vehicle id="right_down_60" type="car"  route="right_down" depart="586.0" />
        <vehicle id="up_61" type="car"  route="up" depart="591.5" />
        <vehicle id="down_62" type="car"  route="down" depart="597.5" />
        <vehicle id="left_63" type="car"  route="left" depart="616.5" />
        <vehicle id="down_64" type="car"  route="down" depart="617.0" />
        <vehicle id="left_up_65" type="car"  route="left_up" depart="619.0" />
        <vehicle id="left_up_66" type="car"  route="left_up" depart="622.0" />
        <vehicle id="left_up_67" type="car"  route="left_up" depart="625.5" />
        <vehicle id="down_left_68" type="car"  route="down_left" depart="641.5" />
        <vehicle id="up_right_69" type="car"  route="up_right" depart="651.5" />
        <vehicle id="up_right_70" type="car"  route="up_right" depart="655.0" />
        <vehicle id="right_71" type="car"  route="right" depart="680.0" />
        <vehicle id="up_left_72" type="car"  route="up_left" depart="681.5" />
        <vehicle id="right_73" type="car"  route="right" depart="691.5" />
        <vehicle id="down_74" type="car"  route="down" depart="702.5" />
        <vehicle id="right_down_75" type="car"  route="right_down" depart="712.5" />
        <vehicle id="up_right_76" type="car"  route="up_right" depart="713.5" />
        <vehicle id="left_up_77" type="car"  route="left_up" depart="718.0" />
        <vehicle id="left_down_78" type="car"  route="left_down" depart="722.5" />
        <vehicle id="right_79" type="car"  route="right" depart="725.5" />
        <vehicle id="down_right_80" type="car"  route="down_right" depart="733.5" />
        <vehicle id="down_right_81" type="car"  route="down_right" depart="748.0" />
        <vehicle id="down_right_82" type="car"  route="down_right" depart="752.0" />
        <vehicle id="up_left_83" type="car"  route="up_left" depart="762.5" />
        <vehicle id="left_up_84" type="car"  route="left_up" depart="772.0" />
        <vehicle id="down_85" type="car"  route="down" depart="773.5" />
        <vehicle id="down_right_86" type="car"  route="down_right" depart="776.0" />
        <vehicle id="up_87" type="car"  route="up" depart="781.0" />
        <vehicle id="up_88" type="car"  route="up" depart="783.0" />
        <vehicle id="right_up_89" type="car"  route="right_up" depart="783.5" />
        <vehicle id="down_right_90" type="car"  route="down_right" depart="792.0" />
        <vehicle id="up_right_91" type="car"  route="up_right" depart="822.5" />
        <vehicle id="left_down_92" type="car"  route="left_down" depart="831.5" />
        <vehicle id="down_right_93" type="car"  route="down_right" depart="836.0" />
        <vehicle id="right_94" type="car"  route="right" depart="847.5" />
        <vehicle id="right_up_95" type="car"  route="right_up" depart="855.0" />
        <vehicle id="left_down_96" type="car"  route="left_down" depart="864.5" />
        <vehicle id="left_up_97" type="car"  route="left_up" depart="865.0" />
        <vehicle id="up_98" type="car"  route="up" depart="881.0" />
        <vehicle id="down_right_99" type="car"  route="down_right" depart="893.5" />
        <vehicle id="left_100" type="car"  route="left" depart="896.5" />
        <vehicle id="up_right_101" type="car"  route="up_right" depart="902.5" />
        <vehicle id="down_right_102" type="car"  route="down_right" depart="932.0" />
        <vehicle id="left_103" type="car"  route="left" depart="958.5" />
        <vehicle id="up_left_104" type="car"  route="up_left" depart="973.5" />
        <vehicle id="left_105" type="car"  route="left" depart="974.5" />
        <vehicle id="up_right_106" type="car"  route="up_right" depart="978.5" />
        <vehicle id="right_up_107" type="car"  route="right_up" depart="1000.0" />
        <vehicle id="up_108" type="car"  route="up" depart="1001.0" />
        <vehicle id="right_up_109" type="car"  route="right_up" depart="1007.0" />
        <vehicle id="right_110" type="car"  route="right" depart="1015.0" />
        <vehicle id="up_right_111" type="car"  route="up_right" depart="1016.0" />
        <vehicle id="up_right_112" type="car"  route="up_right" depart="1017.0" />
        <vehicle id="left_down_113" type="car"  route="left_down" depart="1022.0" />
        <vehicle id="up_left_114" type="car"  route="up_left" depart="1026.0" />
        <vehicle id="down_right_115" type="car"  route="down_right" depart="1042.0" />
        <vehicle id="right_up_116" type="car"  route="right_up" depart="1056.5" />
        <vehicle id="right_down_117" type="car"  route="right_down" depart="1058.5" />
        <vehicle id="left_down_118" type="car"  route="left_down" depart="1064.0" />
        <vehicle id="down_left_119" type="car"  route="down_left" depart="1065.5" />
        <vehicle id="right_down_120" type="car"  route="right_down" depart="1091.5" />
        <vehicle id="up_left_121" type="car"  route="up_left" depart="1093.5" />
        <vehicle id="up_right_122" type="car"  route="up_right" depart="1103.0" />
        <vehicle id="right_down_123" type="car"  route="right_down" depart="1105.5" />
        <vehicle id="down_124" type="car"  route="down" depart="1106.5" />
        <vehicle id="left_up_125" type="car"  route="left_up" depart="1109.5" />
        <vehicle id="down_right_126" type="car"  route="down_right" depart="1111.0" />
        <vehicle id="up_right_127" type="car"  route="up_right" depart="1114.0" />
        <vehicle id="up_left_128" type="car"  route="up_left" depart="1117.5" />
        <vehicle id="right_129" type="car"  route="right" depart="1135.0" />
        <vehicle id="down_right_130" type="car"  route="down_right" depart="1145.5" />
        <vehicle id="down_left_131" type="car"  route="down_left" depart="1163.0" />
        <vehicle id="up_132" type="car"  route="up" depart="1169.5" />
        <vehicle id="left_133" type="car"  route="left" depart="1179.5" />
        <vehicle id="right_up_134" type="car"  route="right_up" depart="1202.0" />
        <vehicle id="up_left_135" type="car"  route="up_left" depart="1206.5" />
        <vehicle id="down_right_136" type="car"  route="down_right" depart="1220.5" />
        <vehicle id="down_right_137" type="car"  route="down_right" depart="1240.0" />
        <vehicle id="right_down_138" type="car"  route="right_down" depart="1245.0" />
        <vehicle id="left_up_139" type="car"  route="left_up" depart="1263.5" />
        <vehicle id="right_up_140" type="car"  route="right_up" depart="1265.5" />
        <vehicle id="right_141" type="car"  route="right" depart="1276.0" />
        <vehicle id="down_right_142" type="car"  route="down_right" depart="1277.5" />
        <vehicle id="down_right_143" type="car"  route="down_right" depart="1285.5" />
        <vehicle id="up_144" type="car"  route="up" depart="1294.5" />
        <vehicle id="up_left_145" type="car"  route="up_left" depart="1312.0" />
        <vehicle id="right_down_146" type="car"  route="right_down" depart="1327.0" />
        <vehicle id="left_up_147" type="car"  route="left_up" depart="1340.0" />
        <vehicle id="left_148" type="car"  route="left" depart="1370.5" />
        <vehicle id="right_up_149" type="car"  route="right_up" depart="1371.0" />
        <vehicle id="left_150" type="car"  route="left" depart="1379.0" />
        <vehicle id="left_up_151" type="car"  route="left_up" depart="1391.5" />
        <vehicle id="left_152" type="car"  route="left" depart="1396.5" />
        <vehicle id="left_down_153" type="car"  route="left_down" depart="1405.0" />
        <vehicle id="down_right_154" type="car"  route="down_right" depart="1416.0" />
        <vehicle id="up_left_155" type="car"  route="up_left" depart="1423.0" />
        <vehicle id="up_left_156" type="car"  route="up_left" depart="1473.0" />
        <vehicle id="right_157" type="car"  route="right" depart="1477.5" />
        <vehicle id="right_158" type="car"  route="right" depart="1484.0" />
        <vehicle id="down_159" type="car"  route="down" depart="1502.5" />
        <vehicle id="left_up_160" type="car"  route="left_up" depart="1511.0" />
        <vehicle id="down_161" type="car"  route="down" depart="1544.5" />
        <vehicle id="down_right_162" type="car"  route="down_right" depart="1559.5" />
        <vehicle id="left_163" type="car"  route="left" depart="1575.5" />
        <vehicle id="up_164" type="car"  route="up" depart="1615.0" />
        <vehicle id="up_left_165" type="car"  route="up_left" depart="1624.5" />
        <vehicle id="left_166" type="car"  route="left" depart="1634.0" />
        <vehicle id="down_right_167" type="car"  route="down_right" depart="1639.5" />
        <vehicle id="down_168" type="car"  route="down" depart="1641.0" />
        <vehicle id="left_down_169" type="car"  route="left_down" depart="1642.0" />
        <vehicle id="left_down_170" type="car"  route="left_down" depart="1665.0" />
        <vehicle id="left_171" type="car"  route="left" depart="1672.5" />
        <vehicle id="up_left_172" type="car"  route="up_left" depart="1676.5" />
        <vehicle id="left_down_173" type="car"  route="left_down" depart="1685.0" />
        <vehicle id="left_down_174" type="car"  route="left_down" depart="1690.0" />
        <vehicle id="right_up_175" type="car"  route="right_up" depart="1692.0" />
        <vehicle id="right_down_176" type="car"  route="right_down" depart="1692.5" />
        <vehicle id="up_right_177" type="car"  route="up_right" depart="1723.0" />
        <vehicle id="left_178" type="car"  route="left" depart="1724.0" />
        <vehicle id="up_right_179" type="car"  route="up_right" depart="1737.0" />
        <vehicle id="down_180" type="car"  route="down" depart="1740.0" />
        <vehicle id="right_down_181" type="car"  route="right_down" depart="1750.0" />
        <vehicle id="up_left_182" type="car"  route="up_left" depart="1760.0" />
        <vehicle id="right_down_183" type="car"  route="right_down" depart="1764.0" />
        <vehicle id="down_right_184" type="car"  route="down_right" depart="1774.0" />
        <vehicle id="right_up_185" type="car"  route="right_up" depart="1775.0" />
        <vehicle id="down_left_186" type="car"  route="down_left" depart="1803.5" />
        <vehicle id="right_down_187" type="car"  route="right_down" depart="1817.5" />
        <vehicle id="right_down_188" type="car"  route="right_down" depart="1821.5" />
        <vehicle id="left_up_189" type="car"  route="left_up" depart="1828.0" />
        <vehicle id="down_right_190" type="car"  route="down_right" depart="1837.5" />
        <vehicle id="right_down_191" type="car"  route="right_down" depart="1839.0" />
        <vehicle id="right_192" type="car"  route="right" depart="1862.5" />
        <vehicle id="down_193" type="car"  route="down" depart="1886.0" />
        <vehicle id="down_right_194" type="car"  route="down_right" depart="1895.0" />
        <vehicle id="up_195" type="car"  route="up" depart="1906.5" />
        <vehicle id="down_right_196" type="car"  route="down_right" depart="1908.0" />
        <vehicle id="left_197" type="car"  route="left" depart="1929.5" />
        <vehicle id="up_198" type="car"  route="up" depart="1932.5" />
        <vehicle id="down_199" type="car"  route="down" depart="1942.5" />
        <vehicle id="up_200" type="car"  route="up" depart="1978.0" />
        <vehicle id="up_right_201" type="car"  route="up_right" depart="1991.5" />
        <vehicle id="up_right_202" type="car"  route="up_right" depart="2004.5" />
        <vehicle id="right_up_203" type="car"  route="right_up" depart="2011.5" />
        <vehicle id="left_down_204" type="car"  route="left_down" depart="2012.0" />
        <vehicle id="down_205" type="car"  route="down" depart="2023.5" />
        <vehicle id="left_206" type="car"  route="left" depart="2024.5" />
        <vehicle id="right_up_207" type="car"  route="right_up" depart="2026.5" />
        <vehicle id="up_208" type="car"  route="up" depart="2059.0" />
        <vehicle id="down_left_209" type="car"  route="down_left" depart="2059.0" />
        <vehicle id="left_down_210" type="car"  route="left_down" depart="2070.5" />
        <vehicle id="left_211" type="car"  route="left" depart="2092.5" />
        <vehicle id="up_212" type="car"  route="up" depart="2096.0" />
        <vehicle id="left_213" type="car"  route="left" depart="2111.0" />
        <vehicle id="down_214" type="car"  route="down" depart="2113.5" />
        <vehicle id="left_215" type="car"  route="left" depart="2127.5" />
        <vehicle id="up_left_216" type="car"  route="up_left" depart="2131.0" />
        <vehicle id="down_left_217" type="car"  route="down_left" depart="2137.5" />
        <vehicle id="left_up_218" type="car"  route="left_up" depart="2184.0" />
        <vehicle id="right_up_219" type="car"  route="right_up" depart="2217.0" />
        <vehicle id="right_down_220" type="car"  route="right_down" depart="2231.0" />
        <vehicle id="left_up_221" type="car"  route="left_up" depart="2245.5" />
        <vehicle id="right_down_222" type="car"  route="right_down" depart="2258.0" />
        <vehicle id="left_223" type="car"  route="left" depart="2263.5" />
        <vehicle id="down_224" type="car"  route="down" depart="2269.5" />
        <vehicle id="left_225" type="car"  route="left" depart="2295.5" />
        <vehicle id="right_226" type="car"  route="right" depart="2302.5" />
        <vehicle id="left_down_227" type="car"  route="left_down" depart="2304.5" />
        <vehicle id="up_left_228" type="car"  route="up_left" depart="2307.0" />
        <vehicle id="down_left_229" type="car"  route="down_left" depart="2309.0" />
        <vehicle id="right_down_230" type="car"  route="right_down" depart="2313.0" />
        <vehicle id="left_231" type="car"  route="left" depart="2313.0" />
        <vehicle id="left_down_232" type="car"  route="left_down" depart="2320.5" />
        <vehicle id="left_233" type="car"  route="left" depart="2325.0" />
        <vehicle id="left_down_234" type="car"  route="left_down" depart="2330.0" />
        <vehicle id="up_right_235" type="car"  route="up_right" depart="2343.0" />
        <vehicle id="right_236" type="car"  route="right" depart="2348.0" />
        <vehicle id="down_237" type="car"  route="down" depart="2350.0" />
        <vehicle id="right_238" type="car"  route="right" depart="2368.5" />
        <vehicle id="left_down_239" type="car"  route="left_down" depart="2370.5" />
        <vehicle id="left_up_240" type="car"  route="left_up" depart="2378.5" />
        <vehicle id="right_241" type="car"  route="right" depart="2383.5" />
        <vehicle id="left_down_242" type="car"  route="left_down" depart="2399.5" />
        <vehicle id="down_left_243" type="car"  route="down_left" depart="2424.0" />
        <vehicle id="down_right_244" type="car"  route="down_right" depart="2429.0" />
        <vehicle id="up_right_245" type="car"  route="up_right" depart="2439.0" />
        <vehicle id="right_down_246" type="car"  route="right_down" depart="2491.0" />
        <vehicle id="right_down_247" type="car"  route="right_down" depart="2496.0" />
        <vehicle id="left_up_248" type="car"  route="left_up" depart="2503.0" />
        <vehicle id="down_right_249" type="car"  route="down_right" depart="2504.0" />
        <vehicle id="left_up_250" type="car"  route="left_up" depart="2519.0" />
        <vehicle id="down_left_251" type="car"  route="down_left" depart="2520.5" />
        <vehicle id="right_down_252" type="car"  route="right_down" depart="2523.5" />
        <vehicle id="up_right_253" type="car"  route="up_right" depart="2530.0" />
        <vehicle id="right_up_254" type="car"  route="right_up" depart="2532.5" />
        <vehicle id="down_right_255" type="car"  route="down_right" depart="2570.0" />
        <vehicle id="left_up_256" type="car"  route="left_up" depart="2611.0" />
        <vehicle id="down_257" type="car"  route="down" depart="2614.5" />
        <vehicle id="up_258" type="car"  route="up" depart="2627.5" />
        <vehicle id="right_down_259" type="car"  route="right_down" depart="2633.0" />
        <vehicle id="left_up_260" type="car"  route="left_up" depart="2636.0" />
        <vehicle id="left_up_261" type="car"  route="left_up" depart="2638.5" />
        <vehicle id="down_left_262" type="car"  route="down_left" depart="2656.0" />
        <vehicle id="down_right_263" type="car"  route="down_right" depart="2671.0" />
        <vehicle id="right_down_264" type="car"  route="right_down" depart="2673.0" />
        <vehicle id="left_265" type="car"  route="left" depart="2680.5" />
        <vehicle id="up_266" type="car"  route="up" depart="2684.0" />
        <vehicle id="left_267" type="car"  route="left" depart="2686.5" />
        <vehicle id="up_left_268" type="car"  route="up_left" depart="2712.5" />
        <vehicle id="down_269" type="car"  route="down" depart="2731.0" />
        <vehicle id="left_down_270" type="car"  route="left_down" depart="2744.0" />
        <vehicle id="right_up_271" type="car"  route="right_up" depart="2750.5" />
        <vehicle id="left_up_272" type="car"  route="left_up" depart="2761.5" />
        <vehicle id="up_right_273" type="car"  route="up_right" depart="2766.0" />
        <vehicle id="left_down_274" type="car"  route="left_down" depart="2797.5" />
        <vehicle id="down_left_275" type="car"  route="down_left" depart="2820.5" />
        <vehicle id="down_276" type="car"  route="down" depart="2844.0" />
        <vehicle id="right_down_277" type="car"  route="right_down" depart="2847.0" />
        <vehicle id="left_278" type="car"  route="left" depart="2847.0" />
        <vehicle id="left_279" type="car"  route="left" depart="2850.0" />
        <vehicle id="up_right_280" type="car"  route="up_right" depart="2859.5" />
        <vehicle id="up_left_281" type="car"  route="up_left" depart="2867.0" />
        <vehicle id="down_left_282" type="car"  route="down_left" depart="2870.5" />
        <vehicle id="right_up_283" type="car"  route="right_up" depart="2872.5" />
        <vehicle id="left_down_284" type="car"  route="left_down" depart="2877.0" />
        <vehicle id="right_down_285" type="car"  route="right_down" depart="2879.5" />
        <vehicle id="right_up_286" type="car"  route="right_up" depart="2888.0" />
        <vehicle id="up_287" type="car"  route="up" depart="2923.5" />
        <vehicle id="up_288" type="car"  route="up" depart="2928.0" />
        <vehicle id="down_289" type="car"  route="down" depart="2934.5" />
        <vehicle id="left_down_290" type="car"  route="left_down" depart="2936.0" />
        <vehicle id="right_291" type="car"  route="right" depart="2949.5" />
        <vehicle id="left_down_292" type="car"  route="left_down" depart="2951.5" />
        <vehicle id="up_293" type="car"  route="up" depart="2956.0" />
        <vehicle id="up_294" type="car"  route="up" depart="2960.0" />
        <vehicle id="right_down_295" type="car"  route="right_down" depart="2961.0" />
        <vehicle id="up_right_296" type="car"  route="up_right" depart="2965.5" />
        <vehicle id="left_down_297" type="car"  route="left_down" depart="2969.5" />
        <vehicle id="left_up_298" type="car"  route="left_up" depart="2972.0" />
        <vehicle id="down_299" type="car"  route="down" depart="2974.5" />
        <vehicle id="left_down_300" type="car"  route="left_down" depart="2976.5" />
        <vehicle id="up_left_301" type="car"  route="up_left" depart="2989.0" />
        <vehicle id="left_302" type="car"  route="left" depart="3003.0" />
        <vehicle id="left_up_303" type="car"  route="left_up" depart="3012.5" />
        <vehicle id="up_left_304" type="car"  route="up_left" depart="3020.0" />
        <vehicle id="left_down_305" type="car"  route="left_down" depart="3028.5" />
        <vehicle id="down_306" type="car"  route="down" depart="3045.0" />
        <vehicle id="left_up_307" type="car"  route="left_up" depart="3048.0" />
        <vehicle id="down_308" type="car"  route="down" depart="3053.5" />
        <vehicle id="down_309" type="car"  route="down" depart="3094.5" />
        <vehicle id="right_down_310" type="car"  route="right_down" depart="3096.0" />
        <vehicle id="right_down_311" type="car"  route="right_down" depart="3116.5" />
        <vehicle id="down_left_312" type="car"  route="down_left" depart="3119.0" />
        <vehicle id="right_up_313" type="car"  route="right_up" depart="3141.5" />
        <vehicle id="up_314" type="car"  route="up" depart="3143.0" />
        <vehicle id="up_left_315" type="car"  route="up_left" depart="3150.5" />
        <vehicle id="right_down_316" type="car"  route="right_down" depart="3167.0" />
        <vehicle id="right_317" type="car"  route="right" depart="3168.0" />
        <vehicle id="up_left_318" type="car"  route="up_left" depart="3170.5" />
        <vehicle id="right_up_319" type="car"  route="right_up" depart="3212.0" />
        <vehicle id="up_left_320" type="car"  route="up_left" depart="3212.0" />
        <vehicle id="down_left_321" type="car"  route="down_left" depart="3223.0" />
        <vehicle id="down_right_322" type="car"  route="down_right" depart="3225.0" />
        <vehicle id="up_323" type="car"  route="up" depart="3230.0" />
        <vehicle id="left_down_324" type="car"  route="left_down" depart="3235.0" />
        <vehicle id="up_right_325" type="car"  route="up_right" depart="3256.5" />
        <vehicle id="left_326" type="car"  route="left" depart="3269.5" />
        <vehicle id="left_down_327" type="car"  route="left_down" depart="3285.0" />
        <vehicle id="up_328" type="car"  route="up" depart="3287.5" />
        <vehicle id="right_down_329" type="car"  route="right_down" depart="3294.5" />
        <vehicle id="right_up_330" type="car"  route="right_up" depart="3311.5" />
        <vehicle id="down_right_331" type="car"  route="down_right" depart="3329.5" />
        <vehicle id="down_left_332" type="car"  route="down_left" depart="3330.0" />
        <vehicle id="left_up_333" type="car"  route="left_up" depart="3333.0" />
        <vehicle id="right_up_334" type="car"  route="right_up" depart="3338.5" />
        <vehicle id="up_335" type="car"  route="up" depart="3356.0" />
        <vehicle id="left_up_336" type="car"  route="left_up" depart="3357.5" />
        <vehicle id="up_right_337" type="car"  route="up_right" depart="3395.5" />
        <vehicle id="down_right_338" type="car"  route="down_right" depart="3396.5" />
        <vehicle id="left_down_339" type="car"  route="left_down" depart="3408.0" />
        <vehicle id="up_left_340" type="car"  route="up_left" depart="3418.0" />
        <vehicle id="right_341" type="car"  route="right" depart="3435.0" />
        <vehicle id="up_right_342" type="car"  route="up_right" depart="3447.5" />
        <vehicle id="right_up_343" type="car"  route="right_up" depart="3448.5" />
        <vehicle id="left_up_344" type="car"  route="left_up" depart="3455.5" />
        <vehicle id="down_left_345" type="car"  route="down_left" depart="3471.0" />
        <vehicle id="down_346" type="car"  route="down" depart="3479.0" />
        <vehicle id="right_up_347" type="car"  route="right_up" depart="3488.0" />
        <vehicle id="up_left_348" type="car"  route="up_left" depart="3510.0" />
        <vehicle id="up_right_349" type="car"  route="up_right" depart="3526.5" />
        <vehicle id="down_right_350" type="car"  route="down_right" depart="3544.5" />
        <vehicle id="down_351" type="car"  route="down" depart="3563.5" />
        <vehicle id="down_left_352" type="car"  route="down_left" depart="3568.5" />
        <vehicle id="up_right_353" type="car"  route="up_right" depart="3578.0" />
        <vehicle id="right_354" type="car"  route="right" depart="3595.0" />
</routes>
