<routes>
        <vType id="car" accel="3.5" decel="3.5" sigma="0.5" width="1.8" length="4.5" minGap="1" maxSpeed="25.2" guiShape="passenger"/>

        <route id="right" edges="51o 1i 2o 52i" />
        <route id="right_down" edges="51o 1i 3o 53i" />
        <route id="right_up" edges="51o 1i 4o 54i" />
        <route id="left" edges="52o 2i 1o 51i" />
        <route id="left_down" edges="52o 2i 3o 53i" />
        <route id="left_up" edges="52o 2i 4o 54i" />

        <route id="up" edges="53o 3i 4o 54i" />
,        <route id="up_right" edges="53o 3i 2o 52i" />
        <route id="up_left" edges="53o 3i 1o 51i" />
        <route id="down_right" edges="54o 4i 2o 52i" />
        <route id="down_left" edges="54o 4i 1o 51i" />
        <route id="down" edges="54o 4i 3o 53i" />
        
        <vehicle id="down_0" type="car" route="down" depart="1" />
        <vehicle id="up_right_1" type="car" route="up_right" depart="4" />
        <vehicle id="right_2" type="car" route="right" depart="10" />
        <vehicle id="down_right_3" type="car" route="down_right" depart="16" />
        <vehicle id="up_4" type="car" route="up" depart="23" />
        <vehicle id="down_5" type="car" route="down" depart="24" />
        <vehicle id="right_up_6" type="car" route="right_up" depart="28" />
        <vehicle id="down_left_7" type="car" route="down_left" depart="34" />
        <vehicle id="left_8" type="car" route="left" depart="38" />
        <vehicle id="right_up_9" type="car" route="right_up" depart="50" />
        <vehicle id="up_10" type="car" route="up" depart="56" />
        <vehicle id="down_11" type="car" route="down" depart="65" />
        <vehicle id="right_up_12" type="car" route="right_up" depart="69" />
        <vehicle id="left_13" type="car" route="left" depart="87" />
        <vehicle id="right_up_14" type="car" route="right_up" depart="88" />
        <vehicle id="up_15" type="car" route="up" depart="97" />
        <vehicle id="up_left_16" type="car" route="up_left" depart="122" />
        <vehicle id="left_17" type="car" route="left" depart="137" />
        <vehicle id="down_18" type="car" route="down" depart="149" />
        <vehicle id="up_right_19" type="car" route="up_right" depart="158" />
        <vehicle id="left_up_20" type="car" route="left_up" depart="163" />
        <vehicle id="right_down_21" type="car" route="right_down" depart="173" />
        <vehicle id="left_up_22" type="car" route="left_up" depart="173" />
        <vehicle id="down_23" type="car" route="down" depart="181" />
        <vehicle id="up_left_24" type="car" route="up_left" depart="185" />
        <vehicle id="down_left_25" type="car" route="down_left" depart="208" />
        <vehicle id="down_right_26" type="car" route="down_right" depart="211" />
        <vehicle id="left_27" type="car" route="left" depart="223" />
        <vehicle id="up_left_28" type="car" route="up_left" depart="225" />
        <vehicle id="up_left_29" type="car" route="up_left" depart="227" />
        <vehicle id="down_left_30" type="car" route="down_left" depart="230" />
        <vehicle id="right_up_31" type="car" route="right_up" depart="234" />
        <vehicle id="down_32" type="car" route="down" depart="258" />
        <vehicle id="right_33" type="car" route="right" depart="265" />
        <vehicle id="down_left_34" type="car" route="down_left" depart="275" />
        <vehicle id="up_right_35" type="car" route="up_right" depart="281" />
        <vehicle id="left_36" type="car" route="left" depart="286" />
        <vehicle id="left_down_37" type="car" route="left_down" depart="304" />
        <vehicle id="up_left_38" type="car" route="up_left" depart="305" />
        <vehicle id="up_left_39" type="car" route="up_left" depart="313" />
        <vehicle id="up_left_40" type="car" route="up_left" depart="317" />
        <vehicle id="right_41" type="car" route="right" depart="321" />
        <vehicle id="down_right_42" type="car" route="down_right" depart="325" />
        <vehicle id="down_43" type="car" route="down" depart="329" />
        <vehicle id="down_left_44" type="car" route="down_left" depart="332" />
        <vehicle id="up_left_45" type="car" route="up_left" depart="346" />
        <vehicle id="up_left_46" type="car" route="up_left" depart="358" />
</routes>
